/*---------------------------------------------------------------------------*\
  =========                 |
  \\      /  F ield         | OpenFOAM: The Open Source CFD Toolbox
   \\    /   O peration     | Website:  https://openfoam.org
    \\  /    A nd           | Version:  8
     \\/     M anipulation  |
\*---------------------------------------------------------------------------*/
Build  : 8-1c9b5879390b
Exec   : multiphaseEulerFoam
Date   : Apr 27 2021
Time   : 20:08:20
Host   : "edward-VirtualBox"
PID    : 8795
I/O    : uncollated
Case   : /home/edward/OpenFOAM/edward-8/run/cuboidStirrer_standard/cuboidStirrer_settling_fine
nProcs : 1
sigFpe : Enabling floating point exception trapping (FOAM_SIGFPE).
fileModificationChecking : Monitoring run-time modified files using timeStampMaster (fileModificationSkew 10)
allowSystemOperations : Allowing user-supplied system call operations

// * * * * * * * * * * * * * * * * * * * * * * * * * * * * * * * * * * * * * //
Create time

Create mesh for time = 0


PIMPLE: No convergence criteria found


PIMPLE: No corrector convergence criteria found
        Calculations will do 3 corrections


PIMPLE: Operating solver in transient mode with 3 outer correctors



Reading g

Reading hRef
Creating phaseSystem

Selecting phaseSystem basicMultiphaseSystem
Selecting phaseModel for particles: pureIsothermalPhaseModel
Selecting diameterModel for phase particles: constant
Selecting thermodynamics package 
{
    type            heRhoThermo;
    mixture         pureMixture;
    transport       const;
    thermo          hConst;
    equationOfState rhoConst;
    specie          specie;
    energy          sensibleInternalEnergy;
}

Calculating face flux field phi.particles
Selecting turbulence model type RAS
Selecting RAS turbulence model kineticTheory
Selecting viscosityModel Gidaspow
Selecting conductivityModel Gidaspow
Selecting radialModel SinclairJackson
Selecting granularPressureModel Lun
Selecting frictionalStressModel JohnsonJacksonSchaeffer
kineticTheoryCoeffs
{
    equilibrium     off;
    e               0.8;
    alphaMax        0.07;
    alphaMinFriction 0.069;
    residualAlpha   0.0001;
    viscosityModel  Gidaspow;
    conductivityModel Gidaspow;
    granularPressureModel Lun;
    frictionalStressModel JohnsonJacksonSchaeffer;
    radialModel     SinclairJackson;
    JohnsonJacksonSchaefferCoeffs
    {
        Fr              0.05;
        eta             2;
        p               5;
        phi             28.5;
        alphaDeltaMin   0.01;
    }
}

Selecting thermophysical transport type RAS
Selecting default RAS thermophysical transport model eddyDiffusivity
Selecting phaseModel for water: pureIsothermalPhaseModel
Selecting diameterModel for phase water: constant
Selecting thermodynamics package 
{
    type            heRhoThermo;
    mixture         pureMixture;
    transport       const;
    thermo          eConst;
    equationOfState rPolynomial;
    specie          specie;
    energy          sensibleInternalEnergy;
}

Calculating face flux field phi.water
Selecting turbulence model type laminar
Selecting laminar stress model Stokes
Selecting thermophysical transport type laminar
Selecting default laminar thermophysical transport model Fourier
Creating MRF zone list from MRFProperties
    creating MRF zone: MRF1
Selecting default blending method: none
Selecting surfaceTensionModel for (water and particles): constant
Selecting dragModel for (particles in water): GidaspowErgunWenYu
Selecting swarmCorrection for (particles in water): none
Selecting swarmCorrection for (particles in water): none
Selecting swarmCorrection for (particles in water): none
Calculating field g.h

Reading field p_rgh

Courant Number mean: 0 max: 0

Starting time loop

Courant Number mean: 0 max: 0
deltaT = 0.000239923
Time = 0.000239923

PIMPLE: Iteration 1
MULES: Solving for alpha.particles
particles fraction, min, max = 0.034 0.034 0.034
MULES: Solving for alpha.particles
particles fraction, min, max = 0.034 0.034 0.034
MULES: Solving for alpha.particles
particles fraction, min, max = 0.034 0.034 0.034
Constructing momentum equations
particles min/max T 298 - 298
water min/max T 298 - 298
GAMG:  Solving for p_rgh, Initial residual = 0.99958, Final residual = 0.00714729, No Iterations 3
GAMG:  Solving for p_rgh, Initial residual = 0.937458, Final residual = 9.8457e-09, No Iterations 500
PIMPLE: Iteration 2
MULES: Solving for alpha.particles
DICPBiCGStab:  Solving for alpha.particles, Initial residual = 0.000197239, Final residual = 5.69264e-12, No Iterations 1
particles fraction, min, max = 0.034 0.0339895 0.0340149
MULES: Solving for alpha.particles
DICPBiCGStab:  Solving for alpha.particles, Initial residual = 0.000197188, Final residual = 5.69063e-12, No Iterations 1
particles fraction, min, max = 0.034 0.033979 0.0340298
MULES: Solving for alpha.particles
DICPBiCGStab:  Solving for alpha.particles, Initial residual = 0.00019713, Final residual = 5.68833e-12, No Iterations 1
particles fraction, min, max = 0.034 0.0339685 0.0340447
Constructing momentum equations
particles min/max T 298 - 298
water min/max T 298 - 298
GAMG:  Solving for p_rgh, Initial residual = 0.410068, Final residual = 0.00327849, No Iterations 6
GAMG:  Solving for p_rgh, Initial residual = 0.00424237, Final residual = 9.71336e-08, No Iterations 1000
PIMPLE: Iteration 3
MULES: Solving for alpha.particles
DICPBiCGStab:  Solving for alpha.particles, Initial residual = 0.000195497, Final residual = 5.57521e-12, No Iterations 1
particles fraction, min, max = 0.034 0.0339898 0.0340145
MULES: Solving for alpha.particles
DICPBiCGStab:  Solving for alpha.particles, Initial residual = 0.000195486, Final residual = 5.57461e-12, No Iterations 1
particles fraction, min, max = 0.034 0.0339796 0.0340289
MULES: Solving for alpha.particles
DICPBiCGStab:  Solving for alpha.particles, Initial residual = 0.000195444, Final residual = 5.57294e-12, No Iterations 1
particles fraction, min, max = 0.034 0.0339695 0.0340434
Constructing momentum equations
particles min/max T 298 - 298
water min/max T 298 - 298
GAMG:  Solving for p_rgh, Initial residual = 0.064003, Final residual = 0.000396307, No Iterations 5
GAMG:  Solving for p_rgh, Initial residual = 0.000398473, Final residual = 1.00039e-07, No Iterations 1000
DILUPBiCGStab:  Solving for Theta.particles, Initial residual = 1, Final residual = 2.27037e-08, No Iterations 1
ExecutionTime = 3732.83 s


Courant Number mean: 0.000733708 max: 0.00447657
deltaT = 0.00028788
Time = 0.000527803

PIMPLE: Iteration 1
MULES: Solving for alpha.particles
DICPBiCGStab:  Solving for alpha.particles, Initial residual = 0.000110544, Final residual = 1.01063e-12, No Iterations 1
particles fraction, min, max = 0.034 0.0339572 0.0340608
MULES: Solving for alpha.particles
DICPBiCGStab:  Solving for alpha.particles, Initial residual = 0.00011049, Final residual = 1.01014e-12, No Iterations 1
particles fraction, min, max = 0.034 0.033945 0.0340782
MULES: Solving for alpha.particles
DICPBiCGStab:  Solving for alpha.particles, Initial residual = 0.000110447, Final residual = 1.00972e-12, No Iterations 1
particles fraction, min, max = 0.034 0.0339328 0.0340956
Constructing momentum equations
particles min/max T 298 - 298
water min/max T 298 - 298
GAMG:  Solving for p_rgh, Initial residual = 0.180136, Final residual = 0.000977719, No Iterations 6
GAMG:  Solving for p_rgh, Initial residual = 0.000940944, Final residual = 5.08896e-08, No Iterations 1000
PIMPLE: Iteration 2
MULES: Solving for alpha.particles
DICPBiCGStab:  Solving for alpha.particles, Initial residual = 0.000122259, Final residual = 1.3463e-12, No Iterations 1
particles fraction, min, max = 0.034 0.0339487 0.0340727
MULES: Solving for alpha.particles
DICPBiCGStab:  Solving for alpha.particles, Initial residual = 0.000122195, Final residual = 1.34392e-12, No Iterations 1
particles fraction, min, max = 0.034 0.0339279 0.034102
MULES: Solving for alpha.particles
DICPBiCGStab:  Solving for alpha.particles, Initial residual = 0.000122135, Final residual = 1.34237e-12, No Iterations 1
particles fraction, min, max = 0.034 0.0339072 0.0341313
Constructing momentum equations
particles min/max T 298 - 298
water min/max T 298 - 298
GAMG:  Solving for p_rgh, Initial residual = 0.190073, Final residual = 0.00158795, No Iterations 6
GAMG:  Solving for p_rgh, Initial residual = 0.00156057, Final residual = 3.91669e-08, No Iterations 1000
PIMPLE: Iteration 3
MULES: Solving for alpha.particles
DICPBiCGStab:  Solving for alpha.particles, Initial residual = 0.00012188, Final residual = 1.33848e-12, No Iterations 1
particles fraction, min, max = 0.034 0.0339489 0.0340725
MULES: Solving for alpha.particles
DICPBiCGStab:  Solving for alpha.particles, Initial residual = 0.00012192, Final residual = 1.33894e-12, No Iterations 1
particles fraction, min, max = 0.034 0.0339284 0.0341015
MULES: Solving for alpha.particles
DICPBiCGStab:  Solving for alpha.particles, Initial residual = 0.000121922, Final residual = 1.3389e-12, No Iterations 1
particles fraction, min, max = 0.034 0.0339078 0.0341305
Constructing momentum equations
particles min/max T 298 - 298
water min/max T 298 - 298
GAMG:  Solving for p_rgh, Initial residual = 0.0344568, Final residual = 0.000325356, No Iterations 4
GAMG:  Solving for p_rgh, Initial residual = 0.000332549, Final residual = 4.29348e-08, No Iterations 1000
DILUPBiCGStab:  Solving for Theta.particles, Initial residual = 0.999986, Final residual = 7.67702e-09, No Iterations 1
ExecutionTime = 7895.41 s


Courant Number mean: 0.00148669 max: 0.00904382
deltaT = 0.000345416
Time = 0.00087322

PIMPLE: Iteration 1
MULES: Solving for alpha.particles
DICPBiCGStab:  Solving for alpha.particles, Initial residual = 6.27269e-05, Final residual = 1.82534e-13, No Iterations 1
particles fraction, min, max = 0.034 0.0338831 0.0341654
MULES: Solving for alpha.particles
DICPBiCGStab:  Solving for alpha.particles, Initial residual = 6.27094e-05, Final residual = 1.82504e-13, No Iterations 1
particles fraction, min, max = 0.034 0.0338584 0.0342003
MULES: Solving for alpha.particles
DICPBiCGStab:  Solving for alpha.particles, Initial residual = 6.26917e-05, Final residual = 1.82465e-13, No Iterations 1
particles fraction, min, max = 0.034 0.0338337 0.0342352
Constructing momentum equations
particles min/max T 298 - 298
water min/max T 298 - 298
GAMG:  Solving for p_rgh, Initial residual = 0.0688414, Final residual = 0.000245776, No Iterations 7
GAMG:  Solving for p_rgh, Initial residual = 0.000241219, Final residual = 2.54737e-08, No Iterations 1000
PIMPLE: Iteration 2
MULES: Solving for alpha.particles
DICPBiCGStab:  Solving for alpha.particles, Initial residual = 6.98994e-05, Final residual = 2.5327e-13, No Iterations 1
particles fraction, min, max = 0.034 0.0338764 0.0341749
MULES: Solving for alpha.particles
DICPBiCGStab:  Solving for alpha.particles, Initial residual = 6.97546e-05, Final residual = 2.52718e-13, No Iterations 1
particles fraction, min, max = 0.034 0.0338449 0.0342193
MULES: Solving for alpha.particles
DICPBiCGStab:  Solving for alpha.particles, Initial residual = 6.96406e-05, Final residual = 2.52271e-13, No Iterations 1
particles fraction, min, max = 0.034 0.0338135 0.0342636
Constructing momentum equations
particles min/max T 298 - 298
water min/max T 298 - 298
GAMG:  Solving for p_rgh, Initial residual = 0.0644976, Final residual = 0.000584524, No Iterations 6
GAMG:  Solving for p_rgh, Initial residual = 0.000573494, Final residual = 2.22195e-08, No Iterations 1000
PIMPLE: Iteration 3
MULES: Solving for alpha.particles
DICPBiCGStab:  Solving for alpha.particles, Initial residual = 6.99715e-05, Final residual = 2.52191e-13, No Iterations 1
particles fraction, min, max = 0.034 0.0338766 0.0341747
MULES: Solving for alpha.particles
DICPBiCGStab:  Solving for alpha.particles, Initial residual = 7.00632e-05, Final residual = 2.52309e-13, No Iterations 1
particles fraction, min, max = 0.034 0.0338453 0.0342187
MULES: Solving for alpha.particles
DICPBiCGStab:  Solving for alpha.particles, Initial residual = 7.01134e-05, Final residual = 2.52345e-13, No Iterations 1
particles fraction, min, max = 0.034 0.0338141 0.0342628
Constructing momentum equations
particles min/max T 298 - 298
water min/max T 298 - 298
GAMG:  Solving for p_rgh, Initial residual = 0.0121816, Final residual = 4.79702e-05, No Iterations 5
GAMG:  Solving for p_rgh, Initial residual = 4.83181e-05, Final residual = 2.28518e-08, No Iterations 1000
DILUPBiCGStab:  Solving for Theta.particles, Initial residual = 0.99997, Final residual = 2.47956e-09, No Iterations 1
ExecutionTime = 12071.4 s


Courant Number mean: 0.00225703 max: 0.0137344
deltaT = 0.000414213
Time = 0.00128743

PIMPLE: Iteration 1
MULES: Solving for alpha.particles
DICPBiCGStab:  Solving for alpha.particles, Initial residual = 3.36816e-05, Final residual = 2.79573e-14, No Iterations 1
particles fraction, min, max = 0.034 0.0337767 0.0343158
MULES: Solving for alpha.particles
DICPBiCGStab:  Solving for alpha.particles, Initial residual = 3.36884e-05, Final residual = 2.79553e-14, No Iterations 1
particles fraction, min, max = 0.034 0.0337394 0.0343688
MULES: Solving for alpha.particles
DICPBiCGStab:  Solving for alpha.particles, Initial residual = 3.36909e-05, Final residual = 2.79514e-14, No Iterations 1
particles fraction, min, max = 0.034 0.0337021 0.034422
Constructing momentum equations
particles min/max T 298 - 298
water min/max T 298 - 298
GAMG:  Solving for p_rgh, Initial residual = 0.0201227, Final residual = 0.000140799, No Iterations 6
GAMG:  Solving for p_rgh, Initial residual = 0.000139041, Final residual = 1.50953e-08, No Iterations 1000
PIMPLE: Iteration 2
MULES: Solving for alpha.particles
DICPBiCGStab:  Solving for alpha.particles, Initial residual = 3.71934e-05, Final residual = 3.77254e-14, No Iterations 1
particles fraction, min, max = 0.034 0.033772 0.034323
MULES: Solving for alpha.particles
DICPBiCGStab:  Solving for alpha.particles, Initial residual = 3.72053e-05, Final residual = 3.7733e-14, No Iterations 1
particles fraction, min, max = 0.034 0.0337298 0.034383
MULES: Solving for alpha.particles
DICPBiCGStab:  Solving for alpha.particles, Initial residual = 3.7209e-05, Final residual = 3.77333e-14, No Iterations 1
particles fraction, min, max = 0.034 0.0336877 0.034443
Constructing momentum equations
particles min/max T 298 - 298
water min/max T 298 - 298
GAMG:  Solving for p_rgh, Initial residual = 0.0254406, Final residual = 0.000213622, No Iterations 6
GAMG:  Solving for p_rgh, Initial residual = 0.000211264, Final residual = 1.41371e-08, No Iterations 1000
PIMPLE: Iteration 3
MULES: Solving for alpha.particles
DICPBiCGStab:  Solving for alpha.particles, Initial residual = 3.71607e-05, Final residual = 3.75831e-14, No Iterations 1
particles fraction, min, max = 0.034 0.0337722 0.0343228
MULES: Solving for alpha.particles
DICPBiCGStab:  Solving for alpha.particles, Initial residual = 3.71847e-05, Final residual = 3.7592e-14, No Iterations 1
particles fraction, min, max = 0.034 0.0337302 0.0343825
MULES: Solving for alpha.particles
DICPBiCGStab:  Solving for alpha.particles, Initial residual = 3.71987e-05, Final residual = 3.75949e-14, No Iterations 1
particles fraction, min, max = 0.034 0.0336882 0.0344423
Constructing momentum equations
particles min/max T 298 - 298
water min/max T 298 - 298
GAMG:  Solving for p_rgh, Initial residual = 0.00480432, Final residual = 2.09721e-05, No Iterations 5
GAMG:  Solving for p_rgh, Initial residual = 2.1021e-05, Final residual = 1.42616e-08, No Iterations 1000
DILUPBiCGStab:  Solving for Theta.particles, Initial residual = 0.999809, Final residual = 1.301e-09, No Iterations 1
ExecutionTime = 16329.1 s


Courant Number mean: 0.0030406 max: 0.0185106
deltaT = 0.000496726
Time = 0.00178416

PIMPLE: Iteration 1
MULES: Solving for alpha.particles
DICPBiCGStab:  Solving for alpha.particles, Initial residual = 1.93796e-05, Final residual = 5.33063e-15, No Iterations 1
particles fraction, min, max = 0.034 0.0336379 0.0345142
MULES: Solving for alpha.particles
DICPBiCGStab:  Solving for alpha.particles, Initial residual = 1.9381e-05, Final residual = 5.33012e-15, No Iterations 1
particles fraction, min, max = 0.034 0.0335877 0.0345862
MULES: Solving for alpha.particles
DICPBiCGStab:  Solving for alpha.particles, Initial residual = 1.93806e-05, Final residual = 5.32941e-15, No Iterations 1
particles fraction, min, max = 0.034 0.0335376 0.0346584
Constructing momentum equations
particles min/max T 298 - 298
water min/max T 298 - 298
GAMG:  Solving for p_rgh, Initial residual = 0.0107447, Final residual = 4.84269e-05, No Iterations 6
GAMG:  Solving for p_rgh, Initial residual = 4.81133e-05, Final residual = 9.98327e-09, No Iterations 248
PIMPLE: Iteration 2
MULES: Solving for alpha.particles
DICPBiCGStab:  Solving for alpha.particles, Initial residual = 2.11927e-05, Final residual = 6.98637e-15, No Iterations 1
particles fraction, min, max = 0.034 0.033635 0.0345193
MULES: Solving for alpha.particles
DICPBiCGStab:  Solving for alpha.particles, Initial residual = 2.11941e-05, Final residual = 6.9871e-15, No Iterations 1
particles fraction, min, max = 0.034 0.0335816 0.034596
MULES: Solving for alpha.particles
DICPBiCGStab:  Solving for alpha.particles, Initial residual = 2.11934e-05, Final residual = 6.98699e-15, No Iterations 1
particles fraction, min, max = 0.034 0.0335283 0.0346729
Constructing momentum equations
particles min/max T 298 - 298
water min/max T 298 - 298
GAMG:  Solving for p_rgh, Initial residual = 0.0100754, Final residual = 7.76412e-05, No Iterations 6
GAMG:  Solving for p_rgh, Initial residual = 7.72604e-05, Final residual = 9.8867e-09, No Iterations 258
PIMPLE: Iteration 3
MULES: Solving for alpha.particles
DICPBiCGStab:  Solving for alpha.particles, Initial residual = 2.11806e-05, Final residual = 6.97155e-15, No Iterations 1
particles fraction, min, max = 0.034 0.0336351 0.0345192
MULES: Solving for alpha.particles
DICPBiCGStab:  Solving for alpha.particles, Initial residual = 2.11839e-05, Final residual = 6.97216e-15, No Iterations 1
particles fraction, min, max = 0.034 0.0335819 0.0345957
MULES: Solving for alpha.particles
DICPBiCGStab:  Solving for alpha.particles, Initial residual = 2.11848e-05, Final residual = 6.97192e-15, No Iterations 1
particles fraction, min, max = 0.034 0.0335287 0.0346723
Constructing momentum equations
particles min/max T 298 - 298
water min/max T 298 - 298
GAMG:  Solving for p_rgh, Initial residual = 0.00195598, Final residual = 8.76318e-06, No Iterations 5
GAMG:  Solving for p_rgh, Initial residual = 8.76974e-06, Final residual = 9.82129e-09, No Iterations 192
DILUPBiCGStab:  Solving for Theta.particles, Initial residual = 0.976923, Final residual = 1.55487e-08, No Iterations 1
ExecutionTime = 17372.1 s


Courant Number mean: 0.00386008 max: 0.0235142
deltaT = 0.000595952
Time = 0.00238011

PIMPLE: Iteration 1
MULES: Solving for alpha.particles
DICPBiCGStab:  Solving for alpha.particles, Initial residual = 2.57527e-05, Final residual = 1.27913e-14, No Iterations 1
particles fraction, min, max = 0.034 0.033465 0.0347645
MULES: Solving for alpha.particles
DICPBiCGStab:  Solving for alpha.particles, Initial residual = 2.57489e-05, Final residual = 1.27892e-14, No Iterations 1
particles fraction, min, max = 0.034 0.0334014 0.034857
MULES: Solving for alpha.particles
DICPBiCGStab:  Solving for alpha.particles, Initial residual = 2.57438e-05, Final residual = 1.27866e-14, No Iterations 1
particles fraction, min, max = 0.034 0.0333379 0.0349497
Constructing momentum equations
particles min/max T 298 - 298
water min/max T 298 - 298
GAMG:  Solving for p_rgh, Initial residual = 0.00752498, Final residual = 4.26147e-05, No Iterations 5
GAMG:  Solving for p_rgh, Initial residual = 4.2448e-05, Final residual = 9.96134e-09, No Iterations 213
PIMPLE: Iteration 2
MULES: Solving for alpha.particles
DICPBiCGStab:  Solving for alpha.particles, Initial residual = 2.78628e-05, Final residual = 1.62138e-14, No Iterations 1
particles fraction, min, max = 0.034 0.0334635 0.0347679
MULES: Solving for alpha.particles
DICPBiCGStab:  Solving for alpha.particles, Initial residual = 2.78551e-05, Final residual = 1.62117e-14, No Iterations 1
particles fraction, min, max = 0.034 0.0333981 0.034863
MULES: Solving for alpha.particles
DICPBiCGStab:  Solving for alpha.particles, Initial residual = 2.78464e-05, Final residual = 1.62089e-14, No Iterations 1
particles fraction, min, max = 0.034 0.0333328 0.0349583
Constructing momentum equations
particles min/max T 298 - 298
water min/max T 298 - 298
GAMG:  Solving for p_rgh, Initial residual = 0.004072, Final residual = 2.71224e-05, No Iterations 6
GAMG:  Solving for p_rgh, Initial residual = 2.70597e-05, Final residual = 9.93887e-09, No Iterations 200
PIMPLE: Iteration 3
MULES: Solving for alpha.particles
DICPBiCGStab:  Solving for alpha.particles, Initial residual = 2.78556e-05, Final residual = 1.61968e-14, No Iterations 1
particles fraction, min, max = 0.034 0.0334636 0.0347678
MULES: Solving for alpha.particles
DICPBiCGStab:  Solving for alpha.particles, Initial residual = 2.7849e-05, Final residual = 1.61944e-14, No Iterations 1
particles fraction, min, max = 0.034 0.0333982 0.0348628
MULES: Solving for alpha.particles
DICPBiCGStab:  Solving for alpha.particles, Initial residual = 2.78413e-05, Final residual = 1.61913e-14, No Iterations 1
particles fraction, min, max = 0.034 0.033333 0.034958
Constructing momentum equations
particles min/max T 298 - 298
water min/max T 298 - 298
GAMG:  Solving for p_rgh, Initial residual = 0.000757765, Final residual = 3.31671e-06, No Iterations 5
GAMG:  Solving for p_rgh, Initial residual = 3.31744e-06, Final residual = 9.99274e-09, No Iterations 136
DILUPBiCGStab:  Solving for Theta.particles, Initial residual = 0.968164, Final residual = 5.07813e-08, No Iterations 1
ExecutionTime = 18221.5 s


Courant Number mean: 0.00475435 max: 0.028986
deltaT = 0.000714971
Time = 0.00309508

PIMPLE: Iteration 1
MULES: Solving for alpha.particles
DICPBiCGStab:  Solving for alpha.particles, Initial residual = 3.83084e-05, Final residual = 4.01891e-14, No Iterations 1
particles fraction, min, max = 0.034 0.0332549 0.0350725
MULES: Solving for alpha.particles
DICPBiCGStab:  Solving for alpha.particles, Initial residual = 3.82933e-05, Final residual = 4.01775e-14, No Iterations 1
particles fraction, min, max = 0.034 0.033177 0.0351874
MULES: Solving for alpha.particles
DICPBiCGStab:  Solving for alpha.particles, Initial residual = 3.82776e-05, Final residual = 4.01659e-14, No Iterations 1
particles fraction, min, max = 0.034 0.033099 0.0353027
Constructing momentum equations
particles min/max T 298 - 298
water min/max T 298 - 298
GAMG:  Solving for p_rgh, Initial residual = 0.0053079, Final residual = 3.56814e-05, No Iterations 4
GAMG:  Solving for p_rgh, Initial residual = 3.55887e-05, Final residual = 9.92993e-09, No Iterations 195
PIMPLE: Iteration 2
MULES: Solving for alpha.particles
DICPBiCGStab:  Solving for alpha.particles, Initial residual = 4.11032e-05, Final residual = 4.9669e-14, No Iterations 1
particles fraction, min, max = 0.034 0.0332545 0.0350748
MULES: Solving for alpha.particles
DICPBiCGStab:  Solving for alpha.particles, Initial residual = 4.10853e-05, Final residual = 4.96572e-14, No Iterations 1
particles fraction, min, max = 0.034 0.0331755 0.0351908
MULES: Solving for alpha.particles
DICPBiCGStab:  Solving for alpha.particles, Initial residual = 4.10669e-05, Final residual = 4.96441e-14, No Iterations 1
particles fraction, min, max = 0.034 0.0330966 0.0353072
Constructing momentum equations
particles min/max T 298 - 298
water min/max T 298 - 298
GAMG:  Solving for p_rgh, Initial residual = 0.00237933, Final residual = 2.30517e-05, No Iterations 5
GAMG:  Solving for p_rgh, Initial residual = 2.30221e-05, Final residual = 9.99635e-09, No Iterations 188
PIMPLE: Iteration 3
MULES: Solving for alpha.particles
DICPBiCGStab:  Solving for alpha.particles, Initial residual = 4.11003e-05, Final residual = 4.96493e-14, No Iterations 1
particles fraction, min, max = 0.034 0.0332545 0.0350747
MULES: Solving for alpha.particles
DICPBiCGStab:  Solving for alpha.particles, Initial residual = 4.10825e-05, Final residual = 4.96368e-14, No Iterations 1
particles fraction, min, max = 0.034 0.0331756 0.0351907
MULES: Solving for alpha.particles
DICPBiCGStab:  Solving for alpha.particles, Initial residual = 4.10642e-05, Final residual = 4.96232e-14, No Iterations 1
particles fraction, min, max = 0.034 0.0330967 0.0353071
Constructing momentum equations
particles min/max T 298 - 298
water min/max T 298 - 298
GAMG:  Solving for p_rgh, Initial residual = 0.000270179, Final residual = 1.16433e-06, No Iterations 5
GAMG:  Solving for p_rgh, Initial residual = 1.16439e-06, Final residual = 9.81871e-09, No Iterations 100
DILUPBiCGStab:  Solving for Theta.particles, Initial residual = 0.98138, Final residual = 4.52807e-08, No Iterations 1
ExecutionTime = 18970.8 s


Courant Number mean: 0.0057673 max: 0.0352069
deltaT = 0.000856733
Time = 0.00395181

PIMPLE: Iteration 1
MULES: Solving for alpha.particles
DICPBiCGStab:  Solving for alpha.particles, Initial residual = 3.85209e-05, Final residual = 4.51262e-14, No Iterations 1
particles fraction, min, max = 0.034 0.0330024 0.035447
MULES: Solving for alpha.particles
DICPBiCGStab:  Solving for alpha.particles, Initial residual = 3.84987e-05, Final residual = 4.51082e-14, No Iterations 1
particles fraction, min, max = 0.034 0.0329082 0.0355874
MULES: Solving for alpha.particles
DICPBiCGStab:  Solving for alpha.particles, Initial residual = 3.84767e-05, Final residual = 4.50914e-14, No Iterations 1
particles fraction, min, max = 0.034 0.0328143 0.0357284
Constructing momentum equations
particles min/max T 298 - 298
water min/max T 298 - 298
GAMG:  Solving for p_rgh, Initial residual = 0.00386993, Final residual = 2.95911e-05, No Iterations 3
GAMG:  Solving for p_rgh, Initial residual = 2.95381e-05, Final residual = 9.90293e-09, No Iterations 168
PIMPLE: Iteration 2
MULES: Solving for alpha.particles
DICPBiCGStab:  Solving for alpha.particles, Initial residual = 4.10445e-05, Final residual = 5.46189e-14, No Iterations 1
particles fraction, min, max = 0.034 0.0330024 0.0354493
MULES: Solving for alpha.particles
DICPBiCGStab:  Solving for alpha.particles, Initial residual = 4.10212e-05, Final residual = 5.45995e-14, No Iterations 1
particles fraction, min, max = 0.034 0.0329077 0.0355903
MULES: Solving for alpha.particles
DICPBiCGStab:  Solving for alpha.particles, Initial residual = 4.0998e-05, Final residual = 5.45808e-14, No Iterations 1
particles fraction, min, max = 0.034 0.0328132 0.0357319
Constructing momentum equations
particles min/max T 298 - 298
water min/max T 298 - 298
GAMG:  Solving for p_rgh, Initial residual = 0.00210236, Final residual = 1.95586e-05, No Iterations 4
GAMG:  Solving for p_rgh, Initial residual = 1.95396e-05, Final residual = 9.98523e-09, No Iterations 177
PIMPLE: Iteration 3
MULES: Solving for alpha.particles
DICPBiCGStab:  Solving for alpha.particles, Initial residual = 4.10454e-05, Final residual = 5.46141e-14, No Iterations 1
particles fraction, min, max = 0.034 0.0330024 0.0354492
MULES: Solving for alpha.particles
DICPBiCGStab:  Solving for alpha.particles, Initial residual = 4.10215e-05, Final residual = 5.45943e-14, No Iterations 1
particles fraction, min, max = 0.034 0.0329077 0.0355903
MULES: Solving for alpha.particles
DICPBiCGStab:  Solving for alpha.particles, Initial residual = 4.09978e-05, Final residual = 5.45744e-14, No Iterations 1
particles fraction, min, max = 0.034 0.0328132 0.0357319
Constructing momentum equations
particles min/max T 298 - 298
water min/max T 298 - 298
GAMG:  Solving for p_rgh, Initial residual = 0.000142355, Final residual = 1.0387e-06, No Iterations 4
GAMG:  Solving for p_rgh, Initial residual = 1.03871e-06, Final residual = 9.878e-09, No Iterations 91
DILUPBiCGStab:  Solving for Theta.particles, Initial residual = 0.992215, Final residual = 1.46165e-07, No Iterations 2
ExecutionTime = 19662.7 s


Courant Number mean: 0.00694003 max: 0.0424498
deltaT = 0.00102701
Time = 0.00497883

PIMPLE: Iteration 1
MULES: Solving for alpha.particles
DICPBiCGStab:  Solving for alpha.particles, Initial residual = 0.000853558, Final residual = 2.9788e-10, No Iterations 1
particles fraction, min, max = 0.034 0.0327002 0.0359022
MULES: Solving for alpha.particles
DICPBiCGStab:  Solving for alpha.particles, Initial residual = 0.000854429, Final residual = 3.00672e-10, No Iterations 1
particles fraction, min, max = 0.034 0.0325876 0.0360734
MULES: Solving for alpha.particles
DICPBiCGStab:  Solving for alpha.particles, Initial residual = 0.000855191, Final residual = 3.03487e-10, No Iterations 1
particles fraction, min, max = 0.034 0.0324753 0.0362454
Constructing momentum equations
particles min/max T 298 - 298
water min/max T 298 - 298
GAMG:  Solving for p_rgh, Initial residual = 0.00266647, Final residual = 2.51335e-05, No Iterations 2
GAMG:  Solving for p_rgh, Initial residual = 2.51084e-05, Final residual = 9.89802e-09, No Iterations 171
PIMPLE: Iteration 2
MULES: Solving for alpha.particles
DICPBiCGStab:  Solving for alpha.particles, Initial residual = 0.000880083, Final residual = 3.23531e-10, No Iterations 1
particles fraction, min, max = 0.034 0.0327022 0.0359027
MULES: Solving for alpha.particles
DICPBiCGStab:  Solving for alpha.particles, Initial residual = 0.000879207, Final residual = 3.25686e-10, No Iterations 1
particles fraction, min, max = 0.034 0.0325907 0.036072
MULES: Solving for alpha.particles
DICPBiCGStab:  Solving for alpha.particles, Initial residual = 0.000878404, Final residual = 3.27919e-10, No Iterations 1
particles fraction, min, max = 0.034 0.0324795 0.0362421
Constructing momentum equations
particles min/max T 298 - 298
water min/max T 298 - 298
GAMG:  Solving for p_rgh, Initial residual = 0.00195594, Final residual = 1.93068e-05, No Iterations 3
GAMG:  Solving for p_rgh, Initial residual = 1.93015e-05, Final residual = 9.82826e-09, No Iterations 158
PIMPLE: Iteration 3
MULES: Solving for alpha.particles
DICPBiCGStab:  Solving for alpha.particles, Initial residual = 0.000880718, Final residual = 3.24152e-10, No Iterations 1
particles fraction, min, max = 0.034 0.0327021 0.0359028
MULES: Solving for alpha.particles
DICPBiCGStab:  Solving for alpha.particles, Initial residual = 0.000880007, Final residual = 3.26389e-10, No Iterations 1
particles fraction, min, max = 0.034 0.0325905 0.0360722
MULES: Solving for alpha.particles
DICPBiCGStab:  Solving for alpha.particles, Initial residual = 0.000879326, Final residual = 3.28687e-10, No Iterations 1
particles fraction, min, max = 0.034 0.0324792 0.0362424
Constructing momentum equations
particles min/max T 298 - 298
water min/max T 298 - 298
GAMG:  Solving for p_rgh, Initial residual = 0.000250877, Final residual = 1.95944e-06, No Iterations 3
GAMG:  Solving for p_rgh, Initial residual = 1.95944e-06, Final residual = 9.85073e-09, No Iterations 84
DILUPBiCGStab:  Solving for Theta.particles, Initial residual = 0.717565, Final residual = 1.18866e-08, No Iterations 1
ExecutionTime = 20315.2 s


Courant Number mean: 0.00833033 max: 0.0510652
deltaT = 0.0012314
Time = 0.00621023

PIMPLE: Iteration 1
MULES: Solving for alpha.particles
DICPBiCGStab:  Solving for alpha.particles, Initial residual = 0.0001856, Final residual = 3.11744e-12, No Iterations 1
particles fraction, min, max = 0.034 0.0323462 0.0364473
MULES: Solving for alpha.particles
DICPBiCGStab:  Solving for alpha.particles, Initial residual = 0.00018549, Final residual = 3.14365e-12, No Iterations 1
particles fraction, min, max = 0.034 0.0322136 0.0366534
MULES: Solving for alpha.particles
DICPBiCGStab:  Solving for alpha.particles, Initial residual = 0.000185422, Final residual = 3.17153e-12, No Iterations 1
particles fraction, min, max = 0.034 0.0320813 0.0368606
Constructing momentum equations
particles min/max T 298 - 298
water min/max T 298 - 298
GAMG:  Solving for p_rgh, Initial residual = 0.00209003, Final residual = 5.359e-06, No Iterations 2
GAMG:  Solving for p_rgh, Initial residual = 5.35369e-06, Final residual = 9.72639e-09, No Iterations 143
PIMPLE: Iteration 2
MULES: Solving for alpha.particles
DICPBiCGStab:  Solving for alpha.particles, Initial residual = 0.000197994, Final residual = 3.75996e-12, No Iterations 1
particles fraction, min, max = 0.034 0.0323459 0.0364521
MULES: Solving for alpha.particles
DICPBiCGStab:  Solving for alpha.particles, Initial residual = 0.000198215, Final residual = 3.79895e-12, No Iterations 1
particles fraction, min, max = 0.034 0.0322118 0.0366595
MULES: Solving for alpha.particles
DICPBiCGStab:  Solving for alpha.particles, Initial residual = 0.000198431, Final residual = 3.83902e-12, No Iterations 1
particles fraction, min, max = 0.034 0.0320782 0.0368681
Constructing momentum equations
particles min/max T 298 - 298
water min/max T 298 - 298
GAMG:  Solving for p_rgh, Initial residual = 0.00217234, Final residual = 1.2566e-05, No Iterations 3
GAMG:  Solving for p_rgh, Initial residual = 1.25515e-05, Final residual = 9.95539e-09, No Iterations 140
PIMPLE: Iteration 3
MULES: Solving for alpha.particles
DICPBiCGStab:  Solving for alpha.particles, Initial residual = 0.000198009, Final residual = 3.76143e-12, No Iterations 1
particles fraction, min, max = 0.034 0.032346 0.036452
MULES: Solving for alpha.particles
DICPBiCGStab:  Solving for alpha.particles, Initial residual = 0.000198215, Final residual = 3.80008e-12, No Iterations 1
particles fraction, min, max = 0.034 0.0322119 0.0366593
MULES: Solving for alpha.particles
DICPBiCGStab:  Solving for alpha.particles, Initial residual = 0.000198417, Final residual = 3.83984e-12, No Iterations 1
particles fraction, min, max = 0.034 0.0320783 0.0368678
Constructing momentum equations
particles min/max T 298 - 298
water min/max T 298 - 298
GAMG:  Solving for p_rgh, Initial residual = 0.000100395, Final residual = 5.52397e-07, No Iterations 3
GAMG:  Solving for p_rgh, Initial residual = 5.52386e-07, Final residual = 9.92767e-09, No Iterations 59
DILUPBiCGStab:  Solving for Theta.particles, Initial residual = 0.988926, Final residual = 4.35104e-07, No Iterations 1
ExecutionTime = 20881 s


Courant Number mean: 0.00999423 max: 0.0615105
deltaT = 0.001474
Time = 0.00768422

PIMPLE: Iteration 1
MULES: Solving for alpha.particles
DICPBiCGStab:  Solving for alpha.particles, Initial residual = 0.000187935, Final residual = 1.19667e-11, No Iterations 1
particles fraction, min, max = 0.034 0.0319189 0.0371187
MULES: Solving for alpha.particles
DICPBiCGStab:  Solving for alpha.particles, Initial residual = 0.000187765, Final residual = 1.1969e-11, No Iterations 1
particles fraction, min, max = 0.034 0.0317602 0.0373712
MULES: Solving for alpha.particles
DICPBiCGStab:  Solving for alpha.particles, Initial residual = 0.000187595, Final residual = 1.19707e-11, No Iterations 1
particles fraction, min, max = 0.034 0.031602 0.0376255
Constructing momentum equations
particles min/max T 298 - 298
water min/max T 298 - 298
GAMG:  Solving for p_rgh, Initial residual = 0.00192406, Final residual = 4.44799e-06, No Iterations 2
GAMG:  Solving for p_rgh, Initial residual = 4.44552e-06, Final residual = 9.90743e-09, No Iterations 84
PIMPLE: Iteration 2
MULES: Solving for alpha.particles
DICPBiCGStab:  Solving for alpha.particles, Initial residual = 0.00019551, Final residual = 1.3312e-11, No Iterations 1
particles fraction, min, max = 0.034 0.0319218 0.0371228
MULES: Solving for alpha.particles
DICPBiCGStab:  Solving for alpha.particles, Initial residual = 0.000195377, Final residual = 1.33166e-11, No Iterations 1
particles fraction, min, max = 0.034 0.0317641 0.0373745
MULES: Solving for alpha.particles
DICPBiCGStab:  Solving for alpha.particles, Initial residual = 0.000195236, Final residual = 1.33201e-11, No Iterations 1
particles fraction, min, max = 0.034 0.031607 0.0376278
Constructing momentum equations
particles min/max T 298 - 298
water min/max T 298 - 298
GAMG:  Solving for p_rgh, Initial residual = 0.00179707, Final residual = 1.67779e-05, No Iterations 2
GAMG:  Solving for p_rgh, Initial residual = 1.67628e-05, Final residual = 9.71412e-09, No Iterations 152
PIMPLE: Iteration 3
MULES: Solving for alpha.particles
DICPBiCGStab:  Solving for alpha.particles, Initial residual = 0.000195503, Final residual = 1.3311e-11, No Iterations 1
particles fraction, min, max = 0.034 0.0319216 0.0371228
MULES: Solving for alpha.particles
DICPBiCGStab:  Solving for alpha.particles, Initial residual = 0.000195361, Final residual = 1.33161e-11, No Iterations 1
particles fraction, min, max = 0.034 0.0317638 0.0373745
MULES: Solving for alpha.particles
DICPBiCGStab:  Solving for alpha.particles, Initial residual = 0.000195211, Final residual = 1.33199e-11, No Iterations 1
particles fraction, min, max = 0.034 0.0316066 0.0376278
Constructing momentum equations
particles min/max T 298 - 298
water min/max T 298 - 298
GAMG:  Solving for p_rgh, Initial residual = 0.000194729, Final residual = 1.87945e-06, No Iterations 2
GAMG:  Solving for p_rgh, Initial residual = 1.87948e-06, Final residual = 9.92933e-09, No Iterations 87
DILUPBiCGStab:  Solving for Theta.particles, Initial residual = 0.845569, Final residual = 1.38704e-07, No Iterations 1
ExecutionTime = 21402.5 s


Courant Number mean: 0.0119662 max: 0.0740369
deltaT = 0.00176457
Time = 0.0094488

PIMPLE: Iteration 1
MULES: Solving for alpha.particles
DICPBiCGStab:  Solving for alpha.particles, Initial residual = 0.000158183, Final residual = 5.6085e-12, No Iterations 1
particles fraction, min, max = 0.034 0.0314191 0.037933
MULES: Solving for alpha.particles
DICPBiCGStab:  Solving for alpha.particles, Initial residual = 0.000158429, Final residual = 5.69538e-12, No Iterations 1
particles fraction, min, max = 0.034 0.0312326 0.0382407
MULES: Solving for alpha.particles
DICPBiCGStab:  Solving for alpha.particles, Initial residual = 0.000158679, Final residual = 5.78498e-12, No Iterations 1
particles fraction, min, max = 0.034 0.0310468 0.0385508
Constructing momentum equations
particles min/max T 298 - 298
water min/max T 298 - 298
GAMG:  Solving for p_rgh, Initial residual = 0.00144853, Final residual = 2.46081e-06, No Iterations 2
GAMG:  Solving for p_rgh, Initial residual = 2.45968e-06, Final residual = 9.7855e-09, No Iterations 122
PIMPLE: Iteration 2
MULES: Solving for alpha.particles
DICPBiCGStab:  Solving for alpha.particles, Initial residual = 0.000163318, Final residual = 6.00458e-12, No Iterations 1
particles fraction, min, max = 0.034 0.0314198 0.0379404
MULES: Solving for alpha.particles
DICPBiCGStab:  Solving for alpha.particles, Initial residual = 0.00016355, Final residual = 6.0897e-12, No Iterations 1
particles fraction, min, max = 0.034 0.0312314 0.038248
MULES: Solving for alpha.particles
DICPBiCGStab:  Solving for alpha.particles, Initial residual = 0.000163785, Final residual = 6.17811e-12, No Iterations 1
particles fraction, min, max = 0.034 0.0310438 0.0385581
Constructing momentum equations
particles min/max T 298 - 298
water min/max T 298 - 298
GAMG:  Solving for p_rgh, Initial residual = 0.00159766, Final residual = 1.49327e-05, No Iterations 2
GAMG:  Solving for p_rgh, Initial residual = 1.49219e-05, Final residual = 9.97398e-09, No Iterations 147
PIMPLE: Iteration 3
MULES: Solving for alpha.particles
DICPBiCGStab:  Solving for alpha.particles, Initial residual = 0.000163381, Final residual = 6.01238e-12, No Iterations 1
particles fraction, min, max = 0.034 0.0314199 0.0379403
MULES: Solving for alpha.particles
DICPBiCGStab:  Solving for alpha.particles, Initial residual = 0.000163612, Final residual = 6.09792e-12, No Iterations 1
particles fraction, min, max = 0.034 0.0312315 0.0382478
MULES: Solving for alpha.particles
DICPBiCGStab:  Solving for alpha.particles, Initial residual = 0.000163842, Final residual = 6.18666e-12, No Iterations 1
particles fraction, min, max = 0.034 0.031044 0.0385578
Constructing momentum equations
particles min/max T 298 - 298
water min/max T 298 - 298
GAMG:  Solving for p_rgh, Initial residual = 0.000136585, Final residual = 1.11212e-06, No Iterations 2
GAMG:  Solving for p_rgh, Initial residual = 1.1121e-06, Final residual = 9.8759e-09, No Iterations 74
DILUPBiCGStab:  Solving for Theta.particles, Initial residual = 0.995646, Final residual = 7.36438e-09, No Iterations 1
ExecutionTime = 21946 s


Courant Number mean: 0.0143288 max: 0.0892679
deltaT = 0.00211444
Time = 0.0115632

PIMPLE: Iteration 1
MULES: Solving for alpha.particles
DICPBiCGStab:  Solving for alpha.particles, Initial residual = 0.000139916, Final residual = 4.48476e-12, No Iterations 1
particles fraction, min, max = 0.034 0.0308204 0.0389321
MULES: Solving for alpha.particles
DICPBiCGStab:  Solving for alpha.particles, Initial residual = 0.000139889, Final residual = 4.51354e-12, No Iterations 1
particles fraction, min, max = 0.034 0.030598 0.0393099
MULES: Solving for alpha.particles
DICPBiCGStab:  Solving for alpha.particles, Initial residual = 0.000139873, Final residual = 4.5433e-12, No Iterations 1
particles fraction, min, max = 0.034 0.0303768 0.0396914
Constructing momentum equations
particles min/max T 298 - 298
water min/max T 298 - 298
GAMG:  Solving for p_rgh, Initial residual = 0.00132802, Final residual = 2.61079e-06, No Iterations 2
GAMG:  Solving for p_rgh, Initial residual = 2.60987e-06, Final residual = 9.92357e-09, No Iterations 116
PIMPLE: Iteration 2
MULES: Solving for alpha.particles
DICPBiCGStab:  Solving for alpha.particles, Initial residual = 0.000144054, Final residual = 4.8229e-12, No Iterations 1
particles fraction, min, max = 0.034 0.0308237 0.0389419
MULES: Solving for alpha.particles
DICPBiCGStab:  Solving for alpha.particles, Initial residual = 0.000144, Final residual = 4.84863e-12, No Iterations 1
particles fraction, min, max = 0.034 0.0306009 0.0393189
MULES: Solving for alpha.particles
DICPBiCGStab:  Solving for alpha.particles, Initial residual = 0.000143958, Final residual = 4.87563e-12, No Iterations 1
particles fraction, min, max = 0.034 0.0303794 0.0396994
Constructing momentum equations
particles min/max T 298 - 298
water min/max T 298 - 298
GAMG:  Solving for p_rgh, Initial residual = 0.00147619, Final residual = 1.2999e-05, No Iterations 2
GAMG:  Solving for p_rgh, Initial residual = 1.29905e-05, Final residual = 9.67923e-09, No Iterations 144
PIMPLE: Iteration 3
MULES: Solving for alpha.particles
DICPBiCGStab:  Solving for alpha.particles, Initial residual = 0.000144073, Final residual = 4.82643e-12, No Iterations 1
particles fraction, min, max = 0.034 0.0308236 0.0389418
MULES: Solving for alpha.particles
DICPBiCGStab:  Solving for alpha.particles, Initial residual = 0.000144004, Final residual = 4.85229e-12, No Iterations 1
particles fraction, min, max = 0.034 0.0306008 0.0393187
MULES: Solving for alpha.particles
DICPBiCGStab:  Solving for alpha.particles, Initial residual = 0.000143949, Final residual = 4.87934e-12, No Iterations 1
particles fraction, min, max = 0.034 0.0303792 0.0396991
Constructing momentum equations
particles min/max T 298 - 298
water min/max T 298 - 298
GAMG:  Solving for p_rgh, Initial residual = 0.00018833, Final residual = 1.71994e-06, No Iterations 2
GAMG:  Solving for p_rgh, Initial residual = 1.71993e-06, Final residual = 9.67538e-09, No Iterations 84
DILUPBiCGStab:  Solving for Theta.particles, Initial residual = 0.913247, Final residual = 2.5205e-07, No Iterations 3
ExecutionTime = 22510 s


Courant Number mean: 0.0171742 max: 0.107903
deltaT = 0.00253076
Time = 0.014094

PIMPLE: Iteration 1
MULES: Solving for alpha.particles
DICPBiCGStab:  Solving for alpha.particles, Initial residual = 0.000328605, Final residual = 1.84465e-10, No Iterations 1
particles fraction, min, max = 0.034 0.0301155 0.0401583
MULES: Solving for alpha.particles
DICPBiCGStab:  Solving for alpha.particles, Initial residual = 0.000327643, Final residual = 1.83856e-10, No Iterations 1
particles fraction, min, max = 0.034 0.0298535 0.0406224
MULES: Solving for alpha.particles
DICPBiCGStab:  Solving for alpha.particles, Initial residual = 0.000326706, Final residual = 1.83232e-10, No Iterations 1
particles fraction, min, max = 0.034 0.0295932 0.0410914
Constructing momentum equations
particles min/max T 298 - 298
water min/max T 298 - 298
GAMG:  Solving for p_rgh, Initial residual = 0.00105069, Final residual = 2.91119e-06, No Iterations 2
GAMG:  Solving for p_rgh, Initial residual = 2.9104e-06, Final residual = 9.8995e-09, No Iterations 108
PIMPLE: Iteration 2
MULES: Solving for alpha.particles
DICPBiCGStab:  Solving for alpha.particles, Initial residual = 0.000335104, Final residual = 1.8766e-10, No Iterations 1
particles fraction, min, max = 0.034 0.0301188 0.0401607
MULES: Solving for alpha.particles
DICPBiCGStab:  Solving for alpha.particles, Initial residual = 0.000333825, Final residual = 1.86531e-10, No Iterations 1
particles fraction, min, max = 0.034 0.029855 0.0406119
MULES: Solving for alpha.particles
DICPBiCGStab:  Solving for alpha.particles, Initial residual = 0.000332612, Final residual = 1.85451e-10, No Iterations 1
particles fraction, min, max = 0.034 0.0295929 0.0410677
Constructing momentum equations
particles min/max T 298 - 298
water min/max T 298 - 298
GAMG:  Solving for p_rgh, Initial residual = 0.00129972, Final residual = 1.08754e-05, No Iterations 2
GAMG:  Solving for p_rgh, Initial residual = 1.08709e-05, Final residual = 9.73377e-09, No Iterations 138
PIMPLE: Iteration 3
MULES: Solving for alpha.particles
DICPBiCGStab:  Solving for alpha.particles, Initial residual = 0.000335149, Final residual = 1.87744e-10, No Iterations 1
particles fraction, min, max = 0.034 0.0301188 0.0401614
MULES: Solving for alpha.particles
DICPBiCGStab:  Solving for alpha.particles, Initial residual = 0.000333854, Final residual = 1.86641e-10, No Iterations 1
particles fraction, min, max = 0.034 0.029855 0.0406134
MULES: Solving for alpha.particles
DICPBiCGStab:  Solving for alpha.particles, Initial residual = 0.000332643, Final residual = 1.85591e-10, No Iterations 1
particles fraction, min, max = 0.034 0.029593 0.04107
Constructing momentum equations
particles min/max T 298 - 298
water min/max T 298 - 298
GAMG:  Solving for p_rgh, Initial residual = 0.000202251, Final residual = 1.79454e-06, No Iterations 2
GAMG:  Solving for p_rgh, Initial residual = 1.7945e-06, Final residual = 9.67652e-09, No Iterations 86
DILUPBiCGStab:  Solving for Theta.particles, Initial residual = 0.908457, Final residual = 1.50512e-08, No Iterations 2
ExecutionTime = 23059.6 s


Courant Number mean: 0.0205604 max: 0.130584
deltaT = 0.00303691
Time = 0.0171309

PIMPLE: Iteration 1
MULES: Solving for alpha.particles
DICPBiCGStab:  Solving for alpha.particles, Initial residual = 0.000259917, Final residual = 2.62889e-11, No Iterations 1
particles fraction, min, max = 0.034 0.0292807 0.0416236
MULES: Solving for alpha.particles
DICPBiCGStab:  Solving for alpha.particles, Initial residual = 0.00026013, Final residual = 2.65274e-11, No Iterations 1
particles fraction, min, max = 0.034 0.0289708 0.0421844
MULES: Solving for alpha.particles
DICPBiCGStab:  Solving for alpha.particles, Initial residual = 0.000260414, Final residual = 2.67941e-11, No Iterations 1
particles fraction, min, max = 0.034 0.0286635 0.0427524
Constructing momentum equations
particles min/max T 298 - 298
water min/max T 298 - 298
GAMG:  Solving for p_rgh, Initial residual = 0.000907806, Final residual = 2.81385e-06, No Iterations 2
GAMG:  Solving for p_rgh, Initial residual = 2.81334e-06, Final residual = 9.99066e-09, No Iterations 108
PIMPLE: Iteration 2
MULES: Solving for alpha.particles
DICPBiCGStab:  Solving for alpha.particles, Initial residual = 0.000264841, Final residual = 2.75097e-11, No Iterations 1
particles fraction, min, max = 0.034 0.0292881 0.0416523
MULES: Solving for alpha.particles
DICPBiCGStab:  Solving for alpha.particles, Initial residual = 0.000264916, Final residual = 2.76951e-11, No Iterations 1
particles fraction, min, max = 0.034 0.0289783 0.0422197
MULES: Solving for alpha.particles
DICPBiCGStab:  Solving for alpha.particles, Initial residual = 0.000265083, Final residual = 2.79147e-11, No Iterations 1
particles fraction, min, max = 0.034 0.028671 0.0427944
Constructing momentum equations
particles min/max T 298 - 298
water min/max T 298 - 298
GAMG:  Solving for p_rgh, Initial residual = 0.00114953, Final residual = 1.1171e-05, No Iterations 2
GAMG:  Solving for p_rgh, Initial residual = 1.11682e-05, Final residual = 9.69681e-09, No Iterations 138
PIMPLE: Iteration 3
MULES: Solving for alpha.particles
DICPBiCGStab:  Solving for alpha.particles, Initial residual = 0.000264927, Final residual = 2.754e-11, No Iterations 1
particles fraction, min, max = 0.034 0.0292879 0.0416513
MULES: Solving for alpha.particles
DICPBiCGStab:  Solving for alpha.particles, Initial residual = 0.000265006, Final residual = 2.7731e-11, No Iterations 1
particles fraction, min, max = 0.034 0.0289779 0.0422175
MULES: Solving for alpha.particles
DICPBiCGStab:  Solving for alpha.particles, Initial residual = 0.000265186, Final residual = 2.79569e-11, No Iterations 1
particles fraction, min, max = 0.034 0.0286704 0.042791
Constructing momentum equations
particles min/max T 298 - 298
water min/max T 298 - 298
GAMG:  Solving for p_rgh, Initial residual = 0.000171667, Final residual = 1.08347e-06, No Iterations 2
GAMG:  Solving for p_rgh, Initial residual = 1.08341e-06, Final residual = 9.95341e-09, No Iterations 71
DILUPBiCGStab:  Solving for Theta.particles, Initial residual = 0.552037, Final residual = 9.55849e-08, No Iterations 1
ExecutionTime = 23583.5 s


Courant Number mean: 0.0246836 max: 0.158808
deltaT = 0.00363059
Time = 0.0207615

PIMPLE: Iteration 1
MULES: Solving for alpha.particles
DICPBiCGStab:  Solving for alpha.particles, Initial residual = 0.000236321, Final residual = 2.41618e-11, No Iterations 1
particles fraction, min, max = 0.034 0.028306 0.0434854
MULES: Solving for alpha.particles
DICPBiCGStab:  Solving for alpha.particles, Initial residual = 0.000236321, Final residual = 2.43609e-11, No Iterations 1
particles fraction, min, max = 0.034 0.0279452 0.0441905
MULES: Solving for alpha.particles
DICPBiCGStab:  Solving for alpha.particles, Initial residual = 0.000236377, Final residual = 2.45818e-11, No Iterations 1
particles fraction, min, max = 0.034 0.027588 0.0449064
Constructing momentum equations
particles min/max T 298 - 298
water min/max T 298 - 298
GAMG:  Solving for p_rgh, Initial residual = 0.00078905, Final residual = 3.17027e-06, No Iterations 2
GAMG:  Solving for p_rgh, Initial residual = 3.16995e-06, Final residual = 9.80923e-09, No Iterations 84
PIMPLE: Iteration 2
MULES: Solving for alpha.particles
DICPBiCGStab:  Solving for alpha.particles, Initial residual = 0.000240084, Final residual = 2.49811e-11, No Iterations 1
particles fraction, min, max = 0.034 0.0283187 0.0435195
MULES: Solving for alpha.particles
DICPBiCGStab:  Solving for alpha.particles, Initial residual = 0.000239997, Final residual = 2.51286e-11, No Iterations 1
particles fraction, min, max = 0.034 0.0279601 0.0442264
MULES: Solving for alpha.particles
DICPBiCGStab:  Solving for alpha.particles, Initial residual = 0.000239973, Final residual = 2.53e-11, No Iterations 1
particles fraction, min, max = 0.034 0.027605 0.0449441
Constructing momentum equations
particles min/max T 298 - 298
water min/max T 298 - 298
GAMG:  Solving for p_rgh, Initial residual = 0.000984108, Final residual = 9.33921e-06, No Iterations 2
GAMG:  Solving for p_rgh, Initial residual = 9.33846e-06, Final residual = 9.68041e-09, No Iterations 133
PIMPLE: Iteration 3
MULES: Solving for alpha.particles
DICPBiCGStab:  Solving for alpha.particles, Initial residual = 0.000240138, Final residual = 2.50022e-11, No Iterations 1
particles fraction, min, max = 0.034 0.0283182 0.0435188
MULES: Solving for alpha.particles
DICPBiCGStab:  Solving for alpha.particles, Initial residual = 0.000240048, Final residual = 2.51511e-11, No Iterations 1
particles fraction, min, max = 0.034 0.0279593 0.0442245
MULES: Solving for alpha.particles
DICPBiCGStab:  Solving for alpha.particles, Initial residual = 0.000240024, Final residual = 2.53241e-11, No Iterations 1
particles fraction, min, max = 0.034 0.0276039 0.044941
Constructing momentum equations
particles min/max T 298 - 298
water min/max T 298 - 298
GAMG:  Solving for p_rgh, Initial residual = 0.000161357, Final residual = 1.18072e-06, No Iterations 2
GAMG:  Solving for p_rgh, Initial residual = 1.18066e-06, Final residual = 9.7639e-09, No Iterations 76
DILUPBiCGStab:  Solving for Theta.particles, Initial residual = 0.732614, Final residual = 1.79829e-07, No Iterations 1
ExecutionTime = 24073.4 s


Courant Number mean: 0.0295229 max: 0.192481
deltaT = 0.00435671
Time = 0.0251182

PIMPLE: Iteration 1
MULES: Solving for alpha.particles
DICPBiCGStab:  Solving for alpha.particles, Initial residual = 0.000279518, Final residual = 3.89055e-11, No Iterations 1
particles fraction, min, max = 0.034 0.0271817 0.0458136
MULES: Solving for alpha.particles
DICPBiCGStab:  Solving for alpha.particles, Initial residual = 0.000279009, Final residual = 3.88207e-11, No Iterations 1
particles fraction, min, max = 0.034 0.0267643 0.0467018
MULES: Solving for alpha.particles
DICPBiCGStab:  Solving for alpha.particles, Initial residual = 0.000278599, Final residual = 3.87769e-11, No Iterations 1
particles fraction, min, max = 0.034 0.0263518 0.0476056
Constructing momentum equations
particles min/max T 298 - 298
water min/max T 298 - 298
GAMG:  Solving for p_rgh, Initial residual = 0.000661597, Final residual = 2.92566e-06, No Iterations 2
GAMG:  Solving for p_rgh, Initial residual = 2.92562e-06, Final residual = 9.92398e-09, No Iterations 75
PIMPLE: Iteration 2
MULES: Solving for alpha.particles
DICPBiCGStab:  Solving for alpha.particles, Initial residual = 0.000283698, Final residual = 4.04709e-11, No Iterations 1
particles fraction, min, max = 0.034 0.0271894 0.0458498
MULES: Solving for alpha.particles
DICPBiCGStab:  Solving for alpha.particles, Initial residual = 0.000283021, Final residual = 4.02945e-11, No Iterations 1
particles fraction, min, max = 0.034 0.0267651 0.0467265
MULES: Solving for alpha.particles
DICPBiCGStab:  Solving for alpha.particles, Initial residual = 0.000282452, Final residual = 4.01727e-11, No Iterations 1
particles fraction, min, max = 0.034 0.0263458 0.0476185
Constructing momentum equations
particles min/max T 298 - 298
water min/max T 298 - 298
GAMG:  Solving for p_rgh, Initial residual = 0.000858015, Final residual = 8.05768e-06, No Iterations 2
GAMG:  Solving for p_rgh, Initial residual = 8.05778e-06, Final residual = 9.74358e-09, No Iterations 128
PIMPLE: Iteration 3
MULES: Solving for alpha.particles
DICPBiCGStab:  Solving for alpha.particles, Initial residual = 0.000283805, Final residual = 4.05067e-11, No Iterations 1
particles fraction, min, max = 0.034 0.0271897 0.0458496
MULES: Solving for alpha.particles
DICPBiCGStab:  Solving for alpha.particles, Initial residual = 0.000283167, Final residual = 4.03404e-11, No Iterations 1
particles fraction, min, max = 0.034 0.0267655 0.046726
MULES: Solving for alpha.particles
DICPBiCGStab:  Solving for alpha.particles, Initial residual = 0.000282633, Final residual = 4.0228e-11, No Iterations 1
particles fraction, min, max = 0.034 0.0263464 0.0476177
Constructing momentum equations
particles min/max T 298 - 298
water min/max T 298 - 298
GAMG:  Solving for p_rgh, Initial residual = 0.000156577, Final residual = 1.29642e-06, No Iterations 2
GAMG:  Solving for p_rgh, Initial residual = 1.29634e-06, Final residual = 9.71798e-09, No Iterations 76
DILUPBiCGStab:  Solving for Theta.particles, Initial residual = 0.783798, Final residual = 9.17395e-08, No Iterations 1
ExecutionTime = 24547.9 s


Courant Number mean: 0.035447 max: 0.235039
deltaT = 0.00521848
Time = 0.0303367

PIMPLE: Iteration 1
MULES: Solving for alpha.particles
DICPBiCGStab:  Solving for alpha.particles, Initial residual = 0.000260036, Final residual = 2.72685e-11, No Iterations 1
particles fraction, min, max = 0.034 0.0258502 0.0487037
MULES: Solving for alpha.particles
DICPBiCGStab:  Solving for alpha.particles, Initial residual = 0.000261193, Final residual = 2.78786e-11, No Iterations 1
particles fraction, min, max = 0.034 0.0253611 0.049812
MULES: Solving for alpha.particles
DICPBiCGStab:  Solving for alpha.particles, Initial residual = 0.00026252, Final residual = 2.8569e-11, No Iterations 1
particles fraction, min, max = 0.034 0.0248789 0.0509424
Constructing momentum equations
particles min/max T 298 - 298
water min/max T 298 - 298
GAMG:  Solving for p_rgh, Initial residual = 0.000560359, Final residual = 2.75109e-06, No Iterations 2
GAMG:  Solving for p_rgh, Initial residual = 2.7513e-06, Final residual = 9.76411e-09, No Iterations 64
PIMPLE: Iteration 2
MULES: Solving for alpha.particles
DICPBiCGStab:  Solving for alpha.particles, Initial residual = 0.000262155, Final residual = 2.76878e-11, No Iterations 1
particles fraction, min, max = 0.034 0.0258709 0.0487625
MULES: Solving for alpha.particles
DICPBiCGStab:  Solving for alpha.particles, Initial residual = 0.000263121, Final residual = 2.8234e-11, No Iterations 1
particles fraction, min, max = 0.034 0.0253814 0.0498611
MULES: Solving for alpha.particles
DICPBiCGStab:  Solving for alpha.particles, Initial residual = 0.000264256, Final residual = 2.88585e-11, No Iterations 1
particles fraction, min, max = 0.034 0.024899 0.0509816
Constructing momentum equations
particles min/max T 298 - 298
water min/max T 298 - 298
GAMG:  Solving for p_rgh, Initial residual = 0.000699297, Final residual = 6.91667e-06, No Iterations 2
GAMG:  Solving for p_rgh, Initial residual = 6.91709e-06, Final residual = 9.90679e-09, No Iterations 123
PIMPLE: Iteration 3
MULES: Solving for alpha.particles
DICPBiCGStab:  Solving for alpha.particles, Initial residual = 0.000262258, Final residual = 2.77149e-11, No Iterations 1
particles fraction, min, max = 0.034 0.0258703 0.0487613
MULES: Solving for alpha.particles
DICPBiCGStab:  Solving for alpha.particles, Initial residual = 0.00026325, Final residual = 2.82692e-11, No Iterations 1
particles fraction, min, max = 0.034 0.0253805 0.0498586
MULES: Solving for alpha.particles
DICPBiCGStab:  Solving for alpha.particles, Initial residual = 0.000264408, Final residual = 2.89008e-11, No Iterations 1
particles fraction, min, max = 0.034 0.0248976 0.0509776
Constructing momentum equations
particles min/max T 298 - 298
water min/max T 298 - 298
GAMG:  Solving for p_rgh, Initial residual = 0.000130504, Final residual = 7.61901e-07, No Iterations 2
GAMG:  Solving for p_rgh, Initial residual = 7.61864e-07, Final residual = 9.92032e-09, No Iterations 70
DILUPBiCGStab:  Solving for Theta.particles, Initial residual = 0.333473, Final residual = 7.94637e-07, No Iterations 2
ExecutionTime = 24993.6 s


Courant Number mean: 0.0424881 max: 0.286789
deltaT = 0.00626218
Time = 0.0365989

PIMPLE: Iteration 1
MULES: Solving for alpha.particles
DICPBiCGStab:  Solving for alpha.particles, Initial residual = 0.000535302, Final residual = 5.0173e-10, No Iterations 1
particles fraction, min, max = 0.034 0.0243266 0.0523455
MULES: Solving for alpha.particles
DICPBiCGStab:  Solving for alpha.particles, Initial residual = 0.000540253, Final residual = 5.51394e-10, No Iterations 1
particles fraction, min, max = 0.034 0.0237655 0.0537438
MULES: Solving for alpha.particles
DICPBiCGStab:  Solving for alpha.particles, Initial residual = 0.000545849, Final residual = 6.10621e-10, No Iterations 1
particles fraction, min, max = 0.034 0.0231844 0.055172
Constructing momentum equations
particles min/max T 298 - 298
water min/max T 298 - 298
GAMG:  Solving for p_rgh, Initial residual = 0.00049819, Final residual = 2.61633e-06, No Iterations 2
GAMG:  Solving for p_rgh, Initial residual = 2.61676e-06, Final residual = 9.83066e-09, No Iterations 65
PIMPLE: Iteration 2
MULES: Solving for alpha.particles
DICPBiCGStab:  Solving for alpha.particles, Initial residual = 0.000533544, Final residual = 4.53241e-10, No Iterations 1
particles fraction, min, max = 0.034 0.0243565 0.0524201
MULES: Solving for alpha.particles
DICPBiCGStab:  Solving for alpha.particles, Initial residual = 0.000537021, Final residual = 4.83146e-10, No Iterations 1
particles fraction, min, max = 0.034 0.0237862 0.0537952
MULES: Solving for alpha.particles
DICPBiCGStab:  Solving for alpha.particles, Initial residual = 0.000541169, Final residual = 5.17862e-10, No Iterations 1
particles fraction, min, max = 0.034 0.0231896 0.0551993
Constructing momentum equations
particles min/max T 298 - 298
water min/max T 298 - 298
GAMG:  Solving for p_rgh, Initial residual = 0.000595365, Final residual = 5.69168e-06, No Iterations 2
GAMG:  Solving for p_rgh, Initial residual = 5.69233e-06, Final residual = 9.88915e-09, No Iterations 117
PIMPLE: Iteration 3
MULES: Solving for alpha.particles
DICPBiCGStab:  Solving for alpha.particles, Initial residual = 0.000534012, Final residual = 4.57815e-10, No Iterations 1
particles fraction, min, max = 0.034 0.0243555 0.0524198
MULES: Solving for alpha.particles
DICPBiCGStab:  Solving for alpha.particles, Initial residual = 0.000537613, Final residual = 4.89345e-10, No Iterations 1
particles fraction, min, max = 0.034 0.0237858 0.0537942
MULES: Solving for alpha.particles
DICPBiCGStab:  Solving for alpha.particles, Initial residual = 0.000541873, Final residual = 5.2602e-10, No Iterations 1
particles fraction, min, max = 0.034 0.0231889 0.0551977
Constructing momentum equations
particles min/max T 298 - 298
water min/max T 298 - 298
GAMG:  Solving for p_rgh, Initial residual = 0.000130644, Final residual = 7.21119e-07, No Iterations 2
GAMG:  Solving for p_rgh, Initial residual = 7.21086e-07, Final residual = 9.79254e-09, No Iterations 68
DILUPBiCGStab:  Solving for Theta.particles, Initial residual = 0.445996, Final residual = 1.06691e-07, No Iterations 1
ExecutionTime = 25421.1 s


Courant Number mean: 0.0510238 max: 0.350642
deltaT = 0.00747421
Time = 0.0440731

PIMPLE: Iteration 1
MULES: Solving for alpha.particles
DICPBiCGStab:  Solving for alpha.particles, Initial residual = 0.000627729, Final residual = 4.07016e-10, No Iterations 1
particles fraction, min, max = 0.034 0.0224824 0.056898
MULES: Solving for alpha.particles
DICPBiCGStab:  Solving for alpha.particles, Initial residual = 0.000633227, Final residual = 4.2876e-10, No Iterations 1
particles fraction, min, max = 0.034 0.0217833 0.0586251
MULES: Solving for alpha.particles
DICPBiCGStab:  Solving for alpha.particles, Initial residual = 0.000639656, Final residual = 4.54164e-10, No Iterations 1
particles fraction, min, max = 0.034 0.0210919 0.0603659
Constructing momentum equations
particles min/max T 298 - 298
water min/max T 298 - 298
GAMG:  Solving for p_rgh, Initial residual = 0.000462643, Final residual = 2.43346e-06, No Iterations 2
GAMG:  Solving for p_rgh, Initial residual = 2.43384e-06, Final residual = 9.72638e-09, No Iterations 41
PIMPLE: Iteration 2
MULES: Solving for alpha.particles
DICPBiCGStab:  Solving for alpha.particles, Initial residual = 0.000626748, Final residual = 3.95103e-10, No Iterations 1
particles fraction, min, max = 0.034 0.0225105 0.0569763
MULES: Solving for alpha.particles
DICPBiCGStab:  Solving for alpha.particles, Initial residual = 0.00063095, Final residual = 4.13217e-10, No Iterations 1
particles fraction, min, max = 0.034 0.0218185 0.0586472
MULES: Solving for alpha.particles
DICPBiCGStab:  Solving for alpha.particles, Initial residual = 0.000636084, Final residual = 4.34541e-10, No Iterations 1
particles fraction, min, max = 0.034 0.0211338 0.0603332
Constructing momentum equations
particles min/max T 298 - 298
water min/max T 298 - 298
GAMG:  Solving for p_rgh, Initial residual = 0.000498158, Final residual = 4.47078e-06, No Iterations 2
GAMG:  Solving for p_rgh, Initial residual = 4.47122e-06, Final residual = 9.87201e-09, No Iterations 110
PIMPLE: Iteration 3
MULES: Solving for alpha.particles
DICPBiCGStab:  Solving for alpha.particles, Initial residual = 0.000627044, Final residual = 3.95837e-10, No Iterations 1
particles fraction, min, max = 0.034 0.0225096 0.056983
MULES: Solving for alpha.particles
DICPBiCGStab:  Solving for alpha.particles, Initial residual = 0.000631281, Final residual = 4.14078e-10, No Iterations 1
particles fraction, min, max = 0.034 0.0218163 0.058661
MULES: Solving for alpha.particles
DICPBiCGStab:  Solving for alpha.particles, Initial residual = 0.000636446, Final residual = 4.3555e-10, No Iterations 1
particles fraction, min, max = 0.034 0.0211305 0.060354
Constructing momentum equations
particles min/max T 298 - 298
water min/max T 298 - 298
GAMG:  Solving for p_rgh, Initial residual = 0.000123704, Final residual = 7.20646e-07, No Iterations 2
GAMG:  Solving for p_rgh, Initial residual = 7.20613e-07, Final residual = 9.84583e-09, No Iterations 67
DILUPBiCGStab:  Solving for Theta.particles, Initial residual = 0.343512, Final residual = 2.05352e-07, No Iterations 1
ExecutionTime = 25809 s


Courant Number mean: 0.0609511 max: 0.427229
deltaT = 0.00893974
Time = 0.0530128

PIMPLE: Iteration 1
MULES: Solving for alpha.particles
DICPBiCGStab:  Solving for alpha.particles, Initial residual = 0.000584596, Final residual = 4.58848e-10, No Iterations 1
particles fraction, min, max = 0.034 0.0203186 0.0624157
MULES: Solving for alpha.particles
DICPBiCGStab:  Solving for alpha.particles, Initial residual = 0.000589729, Final residual = 4.87606e-10, No Iterations 1
particles fraction, min, max = 0.034 0.0195178 0.064509
MULES: Solving for alpha.particles
DICPBiCGStab:  Solving for alpha.particles, Initial residual = 0.000596479, Final residual = 5.51121e-10, No Iterations 1
particles fraction, min, max = 0.034 0.0187281 0.0665724
Constructing momentum equations
particles min/max T 298 - 298
water min/max T 298 - 298
GAMG:  Solving for p_rgh, Initial residual = 0.000441788, Final residual = 2.36372e-06, No Iterations 2
GAMG:  Solving for p_rgh, Initial residual = 2.36421e-06, Final residual = 9.74674e-09, No Iterations 64
PIMPLE: Iteration 2
MULES: Solving for alpha.particles
DICPBiCGStab:  Solving for alpha.particles, Initial residual = 0.000585304, Final residual = 4.53219e-10, No Iterations 1
particles fraction, min, max = 0.034 0.0203506 0.0626377
MULES: Solving for alpha.particles
DICPBiCGStab:  Solving for alpha.particles, Initial residual = 0.000589068, Final residual = 4.75391e-10, No Iterations 1
particles fraction, min, max = 0.034 0.0195496 0.0647674
MULES: Solving for alpha.particles
DICPBiCGStab:  Solving for alpha.particles, Initial residual = 0.000594419, Final residual = 5.31799e-10, No Iterations 1
particles fraction, min, max = 0.034 0.0187597 0.0668535
Constructing momentum equations
particles min/max T 298 - 298
water min/max T 298 - 298
GAMG:  Solving for p_rgh, Initial residual = 0.000407656, Final residual = 3.50238e-06, No Iterations 2
GAMG:  Solving for p_rgh, Initial residual = 3.50267e-06, Final residual = 9.98429e-09, No Iterations 103
PIMPLE: Iteration 3
MULES: Solving for alpha.particles
DICPBiCGStab:  Solving for alpha.particles, Initial residual = 0.000585565, Final residual = 4.53943e-10, No Iterations 1
particles fraction, min, max = 0.034 0.0203495 0.0626353
MULES: Solving for alpha.particles
DICPBiCGStab:  Solving for alpha.particles, Initial residual = 0.000589441, Final residual = 4.76477e-10, No Iterations 1
particles fraction, min, max = 0.034 0.0195467 0.0647609
MULES: Solving for alpha.particles
DICPBiCGStab:  Solving for alpha.particles, Initial residual = 0.000594891, Final residual = 5.33095e-10, No Iterations 1
particles fraction, min, max = 0.034 0.0187551 0.0668439
Constructing momentum equations
particles min/max T 298 - 298
water min/max T 298 - 298
GAMG:  Solving for p_rgh, Initial residual = 0.000105356, Final residual = 5.27824e-07, No Iterations 2
GAMG:  Solving for p_rgh, Initial residual = 5.27806e-07, Final residual = 9.71663e-09, No Iterations 57
DILUPBiCGStab:  Solving for Theta.particles, Initial residual = 0.36832, Final residual = 8.81794e-08, No Iterations 1
ExecutionTime = 26200.8 s


Courant Number mean: 0.0729711 max: 0.521344
deltaT = 0.00993305
Time = 0.0629459

PIMPLE: Iteration 1
MULES: Solving for alpha.particles
DICPBiCGStab:  Solving for alpha.particles, Initial residual = 0.100382, Final residual = 5.02765e-11, No Iterations 1
particles fraction, min, max = 0.034 0.0178875 0.0653634
MULES: Solving for alpha.particles
DICPBiCGStab:  Solving for alpha.particles, Initial residual = 0.000448415, Final residual = 3.68695e-14, No Iterations 1
particles fraction, min, max = 0.034 0.0170339 0.0667204
MULES: Solving for alpha.particles
DICPBiCGStab:  Solving for alpha.particles, Initial residual = 0.0114413, Final residual = 8.53242e-11, No Iterations 1
particles fraction, min, max = 0.034 0.0161946 0.0658755
Constructing momentum equations
particles min/max T 298 - 298
water min/max T 298 - 298
GAMG:  Solving for p_rgh, Initial residual = 0.000420595, Final residual = 2.14199e-06, No Iterations 2
GAMG:  Solving for p_rgh, Initial residual = 2.14206e-06, Final residual = 9.94208e-09, No Iterations 86
PIMPLE: Iteration 2
MULES: Solving for alpha.particles
DICPBiCGStab:  Solving for alpha.particles, Initial residual = 0.0775178, Final residual = 4.08161e-11, No Iterations 1
particles fraction, min, max = 0.034 0.0179082 0.065383
MULES: Solving for alpha.particles
DICPBiCGStab:  Solving for alpha.particles, Initial residual = 0.000443014, Final residual = 3.78276e-14, No Iterations 1
particles fraction, min, max = 0.034 0.0170327 0.0666979
MULES: Solving for alpha.particles
DICPBiCGStab:  Solving for alpha.particles, Initial residual = 0.0103392, Final residual = 7.7368e-11, No Iterations 1
particles fraction, min, max = 0.034 0.016172 0.0656655
Constructing momentum equations
particles min/max T 298 - 298
water min/max T 298 - 298
GAMG:  Solving for p_rgh, Initial residual = 0.000278341, Final residual = 2.49124e-06, No Iterations 2
GAMG:  Solving for p_rgh, Initial residual = 2.49137e-06, Final residual = 9.84407e-09, No Iterations 93
PIMPLE: Iteration 3
MULES: Solving for alpha.particles
DICPBiCGStab:  Solving for alpha.particles, Initial residual = 0.0745562, Final residual = 4.08791e-11, No Iterations 1
particles fraction, min, max = 0.034 0.0179091 0.0653668
MULES: Solving for alpha.particles
DICPBiCGStab:  Solving for alpha.particles, Initial residual = 0.000443074, Final residual = 3.57502e-14, No Iterations 1
particles fraction, min, max = 0.034 0.0170334 0.0666944
MULES: Solving for alpha.particles
DICPBiCGStab:  Solving for alpha.particles, Initial residual = 0.00692947, Final residual = 7.69425e-11, No Iterations 1
particles fraction, min, max = 0.034 0.0161724 0.0656506
Constructing momentum equations
particles min/max T 298 - 298
water min/max T 298 - 298
GAMG:  Solving for p_rgh, Initial residual = 9.60408e-05, Final residual = 5.33136e-07, No Iterations 2
GAMG:  Solving for p_rgh, Initial residual = 5.33135e-07, Final residual = 9.96081e-09, No Iterations 52
DILUPBiCGStab:  Solving for Theta.particles, Initial residual = 0.288334, Final residual = 4.21132e-08, No Iterations 1
ExecutionTime = 26601.8 s


Courant Number mean: 0.0811638 max: 0.589615
deltaT = 0.00993305
Time = 0.0728789

PIMPLE: Iteration 1
MULES: Solving for alpha.particles
DICPBiCGStab:  Solving for alpha.particles, Initial residual = 0.000527656, Final residual = 2.59755e-10, No Iterations 1
particles fraction, min, max = 0.034 0.0153258 0.0675459
MULES: Solving for alpha.particles
DICPBiCGStab:  Solving for alpha.particles, Initial residual = 0.0774279, Final residual = 1.52863e-10, No Iterations 2
particles fraction, min, max = 0.034 0.0144948 0.0670293
MULES: Solving for alpha.particles
DICPBiCGStab:  Solving for alpha.particles, Initial residual = 0.000609544, Final residual = 1.13439e-10, No Iterations 2
particles fraction, min, max = 0.034 0.0136796 0.0680203
Constructing momentum equations
particles min/max T 298 - 298
water min/max T 298 - 298
GAMG:  Solving for p_rgh, Initial residual = 0.000531616, Final residual = 1.99334e-06, No Iterations 2
GAMG:  Solving for p_rgh, Initial residual = 1.99306e-06, Final residual = 9.77307e-09, No Iterations 97
PIMPLE: Iteration 2
MULES: Solving for alpha.particles
DICPBiCGStab:  Solving for alpha.particles, Initial residual = 0.00051739, Final residual = 1.57389e-10, No Iterations 1
particles fraction, min, max = 0.034 0.015372 0.067528
MULES: Solving for alpha.particles
DICPBiCGStab:  Solving for alpha.particles, Initial residual = 0.0819385, Final residual = 6.71417e-11, No Iterations 2
particles fraction, min, max = 0.034 0.0145402 0.0674844
MULES: Solving for alpha.particles
DICPBiCGStab:  Solving for alpha.particles, Initial residual = 0.068701, Final residual = 5.10708e-11, No Iterations 2
particles fraction, min, max = 0.034 0.0137243 0.0671563
Constructing momentum equations
particles min/max T 298 - 298
water min/max T 298 - 298
GAMG:  Solving for p_rgh, Initial residual = 0.00020614, Final residual = 1.46577e-06, No Iterations 2
GAMG:  Solving for p_rgh, Initial residual = 1.46585e-06, Final residual = 9.71095e-09, No Iterations 80
PIMPLE: Iteration 3
MULES: Solving for alpha.particles
DICPBiCGStab:  Solving for alpha.particles, Initial residual = 0.0005176, Final residual = 1.53545e-10, No Iterations 1
particles fraction, min, max = 0.034 0.015371 0.0675543
MULES: Solving for alpha.particles
DICPBiCGStab:  Solving for alpha.particles, Initial residual = 0.0795183, Final residual = 6.84865e-11, No Iterations 2
particles fraction, min, max = 0.034 0.0145376 0.0674032
MULES: Solving for alpha.particles
DICPBiCGStab:  Solving for alpha.particles, Initial residual = 0.0722841, Final residual = 6.79691e-11, No Iterations 2
particles fraction, min, max = 0.034 0.0137201 0.0671663
Constructing momentum equations
particles min/max T 298 - 298
water min/max T 298 - 298
GAMG:  Solving for p_rgh, Initial residual = 7.08092e-05, Final residual = 4.27882e-07, No Iterations 2
GAMG:  Solving for p_rgh, Initial residual = 4.2788e-07, Final residual = 9.8335e-09, No Iterations 39
DILUPBiCGStab:  Solving for Theta.particles, Initial residual = 0.304756, Final residual = 6.4396e-08, No Iterations 1
ExecutionTime = 26991.3 s


Courant Number mean: 0.0812447 max: 0.600949
deltaT = 0.00993305
Time = 0.082812

PIMPLE: Iteration 1
MULES: Solving for alpha.particles
DICPBiCGStab:  Solving for alpha.particles, Initial residual = 0.0795849, Final residual = 3.97347e-10, No Iterations 2
particles fraction, min, max = 0.034 0.0129181 0.0660007
MULES: Solving for alpha.particles
DICPBiCGStab:  Solving for alpha.particles, Initial residual = 0.000647586, Final residual = 9.12479e-11, No Iterations 2
particles fraction, min, max = 0.034 0.0121326 0.0674794
MULES: Solving for alpha.particles
DICPBiCGStab:  Solving for alpha.particles, Initial residual = 0.0647894, Final residual = 6.41517e-11, No Iterations 2
particles fraction, min, max = 0.034 0.0113637 0.067093
Constructing momentum equations
particles min/max T 298 - 298
water min/max T 298 - 298
GAMG:  Solving for p_rgh, Initial residual = 0.000383017, Final residual = 1.92021e-06, No Iterations 2
GAMG:  Solving for p_rgh, Initial residual = 1.92015e-06, Final residual = 9.79346e-09, No Iterations 16
PIMPLE: Iteration 2
MULES: Solving for alpha.particles
DICPBiCGStab:  Solving for alpha.particles, Initial residual = 0.0625728, Final residual = 1.38953e-10, No Iterations 2
particles fraction, min, max = 0.034 0.0129747 0.0660908
MULES: Solving for alpha.particles
DICPBiCGStab:  Solving for alpha.particles, Initial residual = 0.000628322, Final residual = 7.81182e-10, No Iterations 1
particles fraction, min, max = 0.034 0.0121961 0.0679413
MULES: Solving for alpha.particles
DICPBiCGStab:  Solving for alpha.particles, Initial residual = 0.0879621, Final residual = 1.23291e-10, No Iterations 2
particles fraction, min, max = 0.034 0.0114339 0.0673487
Constructing momentum equations
particles min/max T 298 - 298
water min/max T 298 - 298
GAMG:  Solving for p_rgh, Initial residual = 0.000173556, Final residual = 8.9254e-07, No Iterations 2
GAMG:  Solving for p_rgh, Initial residual = 8.92582e-07, Final residual = 9.70976e-09, No Iterations 74
PIMPLE: Iteration 3
MULES: Solving for alpha.particles
DICPBiCGStab:  Solving for alpha.particles, Initial residual = 0.0536687, Final residual = 2.2704e-10, No Iterations 2
particles fraction, min, max = 0.034 0.0129731 0.0661323
MULES: Solving for alpha.particles
DICPBiCGStab:  Solving for alpha.particles, Initial residual = 0.000633322, Final residual = 8.26317e-11, No Iterations 2
particles fraction, min, max = 0.034 0.0121925 0.0677529
MULES: Solving for alpha.particles
DICPBiCGStab:  Solving for alpha.particles, Initial residual = 0.0919213, Final residual = 8.45594e-11, No Iterations 2
particles fraction, min, max = 0.034 0.0114284 0.0673799
Constructing momentum equations
particles min/max T 298 - 298
water min/max T 298 - 298
GAMG:  Solving for p_rgh, Initial residual = 5.75437e-05, Final residual = 2.83081e-07, No Iterations 2
GAMG:  Solving for p_rgh, Initial residual = 2.83079e-07, Final residual = 9.87298e-09, No Iterations 39
DILUPBiCGStab:  Solving for Theta.particles, Initial residual = 0.405959, Final residual = 8.98554e-08, No Iterations 1
ExecutionTime = 27265.8 s


Courant Number mean: 0.0813204 max: 0.610174
deltaT = 0.00993305
Time = 0.092745

PIMPLE: Iteration 1
MULES: Solving for alpha.particles
DICPBiCGStab:  Solving for alpha.particles, Initial residual = 0.444517, Final residual = 4.8133e-10, No Iterations 5
particles fraction, min, max = 0.034 0.0106797 0.0681752
MULES: Solving for alpha.particles
DICPBiCGStab:  Solving for alpha.particles, Initial residual = 0.223269, Final residual = 1.63485e-11, No Iterations 2
particles fraction, min, max = 0.034 0.00993661 0.0678957
MULES: Solving for alpha.particles
DICPBiCGStab:  Solving for alpha.particles, Initial residual = 0.303496, Final residual = 1.3293e-10, No Iterations 1
particles fraction, min, max = 0.034 0.00921333 0.0677499
Constructing momentum equations
particles min/max T 298 - 298
water min/max T 298 - 298
GAMG:  Solving for p_rgh, Initial residual = 0.000316801, Final residual = 1.79482e-06, No Iterations 2
GAMG:  Solving for p_rgh, Initial residual = 1.79484e-06, Final residual = 9.92825e-09, No Iterations 70
PIMPLE: Iteration 2
MULES: Solving for alpha.particles
DICPBiCGStab:  Solving for alpha.particles, Initial residual = 0.0814553, Final residual = 3.58367e-13, No Iterations 6
particles fraction, min, max = 0.034 0.010729 0.0682799
MULES: Solving for alpha.particles
DICPBiCGStab:  Solving for alpha.particles, Initial residual = 0.214284, Final residual = 4.57115e-10, No Iterations 2
particles fraction, min, max = 0.034 0.00997532 0.0678841
MULES: Solving for alpha.particles
DICPBiCGStab:  Solving for alpha.particles, Initial residual = 0.214178, Final residual = 1.83211e-11, No Iterations 2
particles fraction, min, max = 0.034 0.00924137 0.0681762
Constructing momentum equations
particles min/max T 298 - 298
water min/max T 298 - 298
GAMG:  Solving for p_rgh, Initial residual = 0.000178935, Final residual = 1.02764e-06, No Iterations 2
GAMG:  Solving for p_rgh, Initial residual = 1.02771e-06, Final residual = 9.98955e-09, No Iterations 74
PIMPLE: Iteration 3
MULES: Solving for alpha.particles
DICPBiCGStab:  Solving for alpha.particles, Initial residual = 0.0855977, Final residual = 1.51873e-12, No Iterations 5
particles fraction, min, max = 0.034 0.0107282 0.0682774
[...]
MULES: Solving for alpha.particles
DICPBiCGStab:  Solving for alpha.particles, Initial residual = 7.52881e-05, Final residual = 4.10477e-10, No Iterations 4
particles fraction, min, max = 0.034 -1.3712e-27 0.0700007
Constructing momentum equations
particles min/max T 298 - 298
water min/max T 298 - 298
GAMG:  Solving for p_rgh, Initial residual = 0.000132026, Final residual = 1.01165e-06, No Iterations 3
GAMG:  Solving for p_rgh, Initial residual = 1.01166e-06, Final residual = 9.47898e-09, No Iterations 25
DILUPBiCGStab:  Solving for Theta.particles, Initial residual = 0.0617794, Final residual = 8.99318e-07, No Iterations 1
ExecutionTime = 193479 s


Courant Number mean: 0.00285684 max: 0.130519
deltaT = 0.000415265
Time = 0.678585

PIMPLE: Iteration 1
MULES: Solving for alpha.particles
DICPBiCGStab:  Solving for alpha.particles, Initial residual = 0.000136547, Final residual = 6.47443e-10, No Iterations 4
particles fraction, min, max = 0.034 -1.92803e-28 0.0700008
MULES: Solving for alpha.particles
DICPBiCGStab:  Solving for alpha.particles, Initial residual = 0.000129448, Final residual = 9.47542e-10, No Iterations 5
particles fraction, min, max = 0.034 -7.94969e-28 0.0700008
MULES: Solving for alpha.particles
DICPBiCGStab:  Solving for alpha.particles, Initial residual = 0.00012442, Final residual = 6.10889e-10, No Iterations 4
particles fraction, min, max = 0.034 -5.97122e-28 0.0700008
Constructing momentum equations
particles min/max T 298 - 298
water min/max T 298 - 298
GAMG:  Solving for p_rgh, Initial residual = 0.00138484, Final residual = 5.58294e-06, No Iterations 2
GAMG:  Solving for p_rgh, Initial residual = 5.58555e-06, Final residual = 9.84254e-09, No Iterations 53
PIMPLE: Iteration 2
MULES: Solving for alpha.particles
DICPBiCGStab:  Solving for alpha.particles, Initial residual = 0.000137373, Final residual = 6.58124e-10, No Iterations 4
particles fraction, min, max = 0.034 -3.55104e-28 0.0700009
MULES: Solving for alpha.particles
DICPBiCGStab:  Solving for alpha.particles, Initial residual = 0.000119221, Final residual = 4.01713e-10, No Iterations 5
particles fraction, min, max = 0.034 -4.9477e-28 0.0700009
MULES: Solving for alpha.particles
DICPBiCGStab:  Solving for alpha.particles, Initial residual = 0.000124363, Final residual = 5.91284e-10, No Iterations 5
particles fraction, min, max = 0.034 -5.0997e-27 0.0700009
Constructing momentum equations
particles min/max T 298 - 298
water min/max T 298 - 298
GAMG:  Solving for p_rgh, Initial residual = 0.000260005, Final residual = 1.37009e-06, No Iterations 3
GAMG:  Solving for p_rgh, Initial residual = 1.37008e-06, Final residual = 9.8025e-09, No Iterations 56
PIMPLE: Iteration 3
MULES: Solving for alpha.particles
DICPBiCGStab:  Solving for alpha.particles, Initial residual = 0.0001412, Final residual = 7.3497e-10, No Iterations 4
particles fraction, min, max = 0.034 -1.99315e-27 0.0700009
MULES: Solving for alpha.particles
DICPBiCGStab:  Solving for alpha.particles, Initial residual = 0.000148482, Final residual = 3.68923e-10, No Iterations 6
particles fraction, min, max = 0.034 -7.94768e-28 0.0700008
MULES: Solving for alpha.particles
DICPBiCGStab:  Solving for alpha.particles, Initial residual = 0.000130993, Final residual = 3.87572e-10, No Iterations 6
particles fraction, min, max = 0.034 -9.44874e-27 0.0700008
Constructing momentum equations
particles min/max T 298 - 298
water min/max T 298 - 298
GAMG:  Solving for p_rgh, Initial residual = 0.00018034, Final residual = 1.52168e-06, No Iterations 3
GAMG:  Solving for p_rgh, Initial residual = 1.52176e-06, Final residual = 9.61346e-09, No Iterations 27
DILUPBiCGStab:  Solving for Theta.particles, Initial residual = 0.0584772, Final residual = 9.63348e-07, No Iterations 1
ExecutionTime = 193818 s


Courant Number mean: 0.00342435 max: 0.125118
deltaT = 0.000498318
Time = 0.679083

PIMPLE: Iteration 1
MULES: Solving for alpha.particles
DICPBiCGStab:  Solving for alpha.particles, Initial residual = 0.000403873, Final residual = 5.27469e-10, No Iterations 6
particles fraction, min, max = 0.034 -1.84024e-27 0.0700011
MULES: Solving for alpha.particles
DICPBiCGStab:  Solving for alpha.particles, Initial residual = 0.000187642, Final residual = 4.18302e-10, No Iterations 7
particles fraction, min, max = 0.034 -2.88987e-27 0.070001
MULES: Solving for alpha.particles
DICPBiCGStab:  Solving for alpha.particles, Initial residual = 0.000194193, Final residual = 5.29289e-10, No Iterations 6
particles fraction, min, max = 0.034 -1.27138e-27 0.070001
Constructing momentum equations
particles min/max T 298 - 298
water min/max T 298 - 298
GAMG:  Solving for p_rgh, Initial residual = 0.00105211, Final residual = 5.47379e-06, No Iterations 2
GAMG:  Solving for p_rgh, Initial residual = 5.4756e-06, Final residual = 9.5588e-09, No Iterations 29
PIMPLE: Iteration 2
MULES: Solving for alpha.particles
DICPBiCGStab:  Solving for alpha.particles, Initial residual = 0.000253464, Final residual = 5.85087e-10, No Iterations 7
particles fraction, min, max = 0.034 -2.55542e-27 0.0700011
MULES: Solving for alpha.particles
DICPBiCGStab:  Solving for alpha.particles, Initial residual = 0.000215609, Final residual = 6.18266e-10, No Iterations 7
particles fraction, min, max = 0.034 -8.11273e-27 0.0700011
MULES: Solving for alpha.particles
DICPBiCGStab:  Solving for alpha.particles, Initial residual = 0.000232198, Final residual = 4.88383e-10, No Iterations 7
particles fraction, min, max = 0.034 -1.83959e-27 0.0700011
Constructing momentum equations
particles min/max T 298 - 298
water min/max T 298 - 298
GAMG:  Solving for p_rgh, Initial residual = 0.000319251, Final residual = 2.75706e-06, No Iterations 3
GAMG:  Solving for p_rgh, Initial residual = 2.7569e-06, Final residual = 9.2877e-09, No Iterations 38
PIMPLE: Iteration 3
MULES: Solving for alpha.particles
DICPBiCGStab:  Solving for alpha.particles, Initial residual = 0.000271132, Final residual = 9.70321e-10, No Iterations 7
particles fraction, min, max = 0.034 -3.6812e-27 0.0700011
MULES: Solving for alpha.particles
DICPBiCGStab:  Solving for alpha.particles, Initial residual = 0.00021489, Final residual = 2.67965e-10, No Iterations 7
particles fraction, min, max = 0.034 -4.97681e-27 0.0700011
MULES: Solving for alpha.particles
DICPBiCGStab:  Solving for alpha.particles, Initial residual = 0.000241243, Final residual = 4.17161e-10, No Iterations 7
particles fraction, min, max = 0.034 -5.52936e-27 0.0700011
Constructing momentum equations
particles min/max T 298 - 298
water min/max T 298 - 298
GAMG:  Solving for p_rgh, Initial residual = 0.000228958, Final residual = 1.28202e-06, No Iterations 4
GAMG:  Solving for p_rgh, Initial residual = 1.28208e-06, Final residual = 9.79098e-09, No Iterations 47
DILUPBiCGStab:  Solving for Theta.particles, Initial residual = 0.155723, Final residual = 6.44682e-07, No Iterations 2
ExecutionTime = 194124 s


Courant Number mean: 0.00410923 max: 0.144469
deltaT = 0.00059761
Time = 0.679681

PIMPLE: Iteration 1
MULES: Solving for alpha.particles
DICPBiCGStab:  Solving for alpha.particles, Initial residual = 0.000569866, Final residual = 4.76018e-10, No Iterations 9
particles fraction, min, max = 0.034 -2.46392e-27 0.0700014
MULES: Solving for alpha.particles
DICPBiCGStab:  Solving for alpha.particles, Initial residual = 0.000381598, Final residual = 9.70917e-10, No Iterations 9
particles fraction, min, max = 0.034 -9.98647e-27 0.0700013
MULES: Solving for alpha.particles
DICPBiCGStab:  Solving for alpha.particles, Initial residual = 0.000405743, Final residual = 7.00909e-10, No Iterations 9
particles fraction, min, max = 0.034 -2.46338e-27 0.0700013
Constructing momentum equations
particles min/max T 298 - 298
water min/max T 298 - 298
GAMG:  Solving for p_rgh, Initial residual = 0.000917974, Final residual = 8.2928e-06, No Iterations 2
GAMG:  Solving for p_rgh, Initial residual = 8.29419e-06, Final residual = 9.64549e-09, No Iterations 40
PIMPLE: Iteration 2
MULES: Solving for alpha.particles
DICPBiCGStab:  Solving for alpha.particles, Initial residual = 0.000428967, Final residual = 7.77298e-10, No Iterations 8
particles fraction, min, max = 0.034 -1.89192e-27 0.0700014
MULES: Solving for alpha.particles
DICPBiCGStab:  Solving for alpha.particles, Initial residual = 0.000366559, Final residual = 8.41238e-10, No Iterations 9
particles fraction, min, max = 0.034 -1.97835e-27 0.0700014
MULES: Solving for alpha.particles
DICPBiCGStab:  Solving for alpha.particles, Initial residual = 0.000412129, Final residual = 5.38738e-10, No Iterations 8
particles fraction, min, max = 0.034 -9.38775e-27 0.0700014
Constructing momentum equations
particles min/max T 298 - 298
water min/max T 298 - 298
GAMG:  Solving for p_rgh, Initial residual = 0.000645041, Final residual = 6.22375e-06, No Iterations 3
GAMG:  Solving for p_rgh, Initial residual = 6.22195e-06, Final residual = 9.80889e-09, No Iterations 56
PIMPLE: Iteration 3
MULES: Solving for alpha.particles
DICPBiCGStab:  Solving for alpha.particles, Initial residual = 0.00187917, Final residual = 5.83243e-10, No Iterations 9
particles fraction, min, max = 0.034 -3.43335e-28 0.0700014
MULES: Solving for alpha.particles
DICPBiCGStab:  Solving for alpha.particles, Initial residual = 0.000420337, Final residual = 7.89622e-10, No Iterations 10
particles fraction, min, max = 0.034 -1.65762e-27 0.0700014
MULES: Solving for alpha.particles
DICPBiCGStab:  Solving for alpha.particles, Initial residual = 0.00138862, Final residual = 8.31873e-10, No Iterations 9
particles fraction, min, max = 0.034 -4.20654e-27 0.0700014
Constructing momentum equations
particles min/max T 298 - 298
water min/max T 298 - 298
GAMG:  Solving for p_rgh, Initial residual = 0.000723808, Final residual = 3.97139e-06, No Iterations 4
GAMG:  Solving for p_rgh, Initial residual = 3.97192e-06, Final residual = 9.62961e-09, No Iterations 45
DILUPBiCGStab:  Solving for Theta.particles, Initial residual = 0.10797, Final residual = 5.21727e-07, No Iterations 2
ExecutionTime = 194501 s


Courant Number mean: 0.00492772 max: 0.169655
deltaT = 0.000716597
Time = 0.680398

PIMPLE: Iteration 1
MULES: Solving for alpha.particles
DICPBiCGStab:  Solving for alpha.particles, Initial residual = 0.00393704, Final residual = 6.16855e-10, No Iterations 15
particles fraction, min, max = 0.034 -1.68862e-26 0.0700018
MULES: Solving for alpha.particles
DICPBiCGStab:  Solving for alpha.particles, Initial residual = 0.000893222, Final residual = 7.82523e-10, No Iterations 11
particles fraction, min, max = 0.034 -2.99767e-27 0.0700017
MULES: Solving for alpha.particles
DICPBiCGStab:  Solving for alpha.particles, Initial residual = 0.000808858, Final residual = 9.00171e-10, No Iterations 14
particles fraction, min, max = 0.034 -7.72186e-27 0.0700017
Constructing momentum equations
particles min/max T 298 - 298
water min/max T 298 - 298
GAMG:  Solving for p_rgh, Initial residual = 0.00120023, Final residual = 7.66032e-06, No Iterations 3
GAMG:  Solving for p_rgh, Initial residual = 7.66466e-06, Final residual = 9.40775e-09, No Iterations 45
PIMPLE: Iteration 2
MULES: Solving for alpha.particles
DICPBiCGStab:  Solving for alpha.particles, Initial residual = 0.000730571, Final residual = 2.56853e-10, No Iterations 12
particles fraction, min, max = 0.034 -7.05687e-27 0.0700018
MULES: Solving for alpha.particles
DICPBiCGStab:  Solving for alpha.particles, Initial residual = 0.000542378, Final residual = 8.90519e-10, No Iterations 11
particles fraction, min, max = 0.034 -2.3131e-27 0.0700018
MULES: Solving for alpha.particles
DICPBiCGStab:  Solving for alpha.particles, Initial residual = 0.000579382, Final residual = 7.23719e-10, No Iterations 10
particles fraction, min, max = 0.034 -3.3011e-28 0.0700018
Constructing momentum equations
particles min/max T 298 - 298
water min/max T 298 - 298
GAMG:  Solving for p_rgh, Initial residual = 0.000846147, Final residual = 4.08894e-06, No Iterations 4
GAMG:  Solving for p_rgh, Initial residual = 4.08732e-06, Final residual = 9.95885e-09, No Iterations 52
PIMPLE: Iteration 3
MULES: Solving for alpha.particles
DICPBiCGStab:  Solving for alpha.particles, Initial residual = 0.00510386, Final residual = 7.86444e-10, No Iterations 14
particles fraction, min, max = 0.034 -2.41226e-26 0.0700019
MULES: Solving for alpha.particles
DICPBiCGStab:  Solving for alpha.particles, Initial residual = 0.000554583, Final residual = 6.43723e-10, No Iterations 11
particles fraction, min, max = 0.034 -3.41538e-27 0.0700019
MULES: Solving for alpha.particles
DICPBiCGStab:  Solving for alpha.particles, Initial residual = 0.00326622, Final residual = 8.31631e-10, No Iterations 16
particles fraction, min, max = 0.034 -7.32334e-27 0.0700019
Constructing momentum equations
particles min/max T 298 - 298
water min/max T 298 - 298
GAMG:  Solving for p_rgh, Initial residual = 0.000907183, Final residual = 5.43711e-06, No Iterations 4
GAMG:  Solving for p_rgh, Initial residual = 5.43994e-06, Final residual = 9.936e-09, No Iterations 69
DILUPBiCGStab:  Solving for Theta.particles, Initial residual = 0.189588, Final residual = 1.71665e-07, No Iterations 2
ExecutionTime = 194933 s


Courant Number mean: 0.00590838 max: 0.198344
deltaT = 0.000859146
Time = 0.681257

PIMPLE: Iteration 1
MULES: Solving for alpha.particles
DICPBiCGStab:  Solving for alpha.particles, Initial residual = 0.0125005, Final residual = 7.93144e-10, No Iterations 16
particles fraction, min, max = 0.034 -9.5165e-27 0.0700023
MULES: Solving for alpha.particles
DICPBiCGStab:  Solving for alpha.particles, Initial residual = 0.00173753, Final residual = 8.56885e-10, No Iterations 13
particles fraction, min, max = 0.034 -2.0332e-26 0.0700022
MULES: Solving for alpha.particles
DICPBiCGStab:  Solving for alpha.particles, Initial residual = 0.00131383, Final residual = 6.62119e-10, No Iterations 11
particles fraction, min, max = 0.034 -9.26696e-27 0.0700023
Constructing momentum equations
particles min/max T 298 - 298
water min/max T 298 - 298
GAMG:  Solving for p_rgh, Initial residual = 0.000981456, Final residual = 5.45284e-06, No Iterations 3
GAMG:  Solving for p_rgh, Initial residual = 5.45277e-06, Final residual = 9.96617e-09, No Iterations 45
PIMPLE: Iteration 2
MULES: Solving for alpha.particles
DICPBiCGStab:  Solving for alpha.particles, Initial residual = 0.00200173, Final residual = 7.94829e-10, No Iterations 15
particles fraction, min, max = 0.034 -4.0333e-26 0.0700024
MULES: Solving for alpha.particles
DICPBiCGStab:  Solving for alpha.particles, Initial residual = 0.00135777, Final residual = 7.40084e-10, No Iterations 16
particles fraction, min, max = 0.034 -1.30709e-26 0.0700023
MULES: Solving for alpha.particles
DICPBiCGStab:  Solving for alpha.particles, Initial residual = 0.00172927, Final residual = 9.46513e-10, No Iterations 15
particles fraction, min, max = 0.034 -2.16922e-26 0.0700023
Constructing momentum equations
particles min/max T 298 - 298
water min/max T 298 - 298
GAMG:  Solving for p_rgh, Initial residual = 0.00119651, Final residual = 1.1476e-05, No Iterations 3
GAMG:  Solving for p_rgh, Initial residual = 1.1468e-05, Final residual = 9.26017e-09, No Iterations 46
PIMPLE: Iteration 3
MULES: Solving for alpha.particles
DICPBiCGStab:  Solving for alpha.particles, Initial residual = 0.00862243, Final residual = 9.31971e-10, No Iterations 19
particles fraction, min, max = 0.034 -4.44821e-27 0.0700023
MULES: Solving for alpha.particles
DICPBiCGStab:  Solving for alpha.particles, Initial residual = 0.00132492, Final residual = 9.38636e-10, No Iterations 15
particles fraction, min, max = 0.034 -1.25356e-26 0.0700023
MULES: Solving for alpha.particles
DICPBiCGStab:  Solving for alpha.particles, Initial residual = 0.00738054, Final residual = 5.06875e-10, No Iterations 19
particles fraction, min, max = 0.034 -3.52981e-26 0.0700023
Constructing momentum equations
particles min/max T 298 - 298
water min/max T 298 - 298
GAMG:  Solving for p_rgh, Initial residual = 0.00137641, Final residual = 6.8843e-06, No Iterations 4
GAMG:  Solving for p_rgh, Initial residual = 6.89005e-06, Final residual = 9.76957e-09, No Iterations 59
DILUPBiCGStab:  Solving for Theta.particles, Initial residual = 0.415944, Final residual = 3.56053e-07, No Iterations 2
ExecutionTime = 195356 s


Courant Number mean: 0.00708421 max: 0.414579
deltaT = 0.0010282
Time = 0.682285

PIMPLE: Iteration 1
MULES: Solving for alpha.particles
DICPBiCGStab:  Solving for alpha.particles, Initial residual = 0.0454385, Final residual = 8.50015e-10, No Iterations 30
particles fraction, min, max = 0.034 -2.67288e-26 0.0700029
MULES: Solving for alpha.particles
DICPBiCGStab:  Solving for alpha.particles, Initial residual = 0.00156605, Final residual = 7.42058e-10, No Iterations 15
particles fraction, min, max = 0.034 -2.67143e-26 0.0700029
MULES: Solving for alpha.particles
DICPBiCGStab:  Solving for alpha.particles, Initial residual = 0.00472545, Final residual = 9.8797e-10, No Iterations 17
particles fraction, min, max = 0.034 -2.29725e-27 0.0700029
Constructing momentum equations
particles min/max T 298 - 298
water min/max T 298 - 298
GAMG:  Solving for p_rgh, Initial residual = 0.000895882, Final residual = 5.16759e-06, No Iterations 3
GAMG:  Solving for p_rgh, Initial residual = 5.1677e-06, Final residual = 9.96673e-09, No Iterations 61
PIMPLE: Iteration 2
MULES: Solving for alpha.particles
DICPBiCGStab:  Solving for alpha.particles, Initial residual = 0.00206648, Final residual = 9.33574e-10, No Iterations 17
particles fraction, min, max = 0.034 -7.49664e-27 0.070003
MULES: Solving for alpha.particles
DICPBiCGStab:  Solving for alpha.particles, Initial residual = 0.00218369, Final residual = 4.69036e-10, No Iterations 22
particles fraction, min, max = 0.034 -3.96542e-26 0.070003
MULES: Solving for alpha.particles
DICPBiCGStab:  Solving for alpha.particles, Initial residual = 0.00210227, Final residual = 8.45442e-10, No Iterations 19
particles fraction, min, max = 0.034 -3.14685e-26 0.070003
Constructing momentum equations
particles min/max T 298 - 298
water min/max T 298 - 298
GAMG:  Solving for p_rgh, Initial residual = 0.00133664, Final residual = 6.07255e-06, No Iterations 4
GAMG:  Solving for p_rgh, Initial residual = 6.06934e-06, Final residual = 9.8952e-09, No Iterations 65
PIMPLE: Iteration 3
MULES: Solving for alpha.particles
DICPBiCGStab:  Solving for alpha.particles, Initial residual = 0.0129672, Final residual = 6.83167e-10, No Iterations 18
particles fraction, min, max = 0.034 -3.90215e-27 0.0700033
MULES: Solving for alpha.particles
DICPBiCGStab:  Solving for alpha.particles, Initial residual = 0.00326429, Final residual = 5.0908e-10, No Iterations 17
particles fraction, min, max = 0.034 -1.11388e-26 0.0700032
MULES: Solving for alpha.particles
DICPBiCGStab:  Solving for alpha.particles, Initial residual = 0.00382247, Final residual = 9.62878e-10, No Iterations 15
particles fraction, min, max = 0.034 -2.90339e-27 0.0700032
Constructing momentum equations
particles min/max T 298 - 298
water min/max T 298 - 298
GAMG:  Solving for p_rgh, Initial residual = 0.00148757, Final residual = 7.88804e-06, No Iterations 4
GAMG:  Solving for p_rgh, Initial residual = 7.88849e-06, Final residual = 9.90713e-09, No Iterations 45
DILUPBiCGStab:  Solving for Theta.particles, Initial residual = 0.396966, Final residual = 7.73844e-07, No Iterations 2
ExecutionTime = 195834 s


Courant Number mean: 0.00848027 max: 0.367854
deltaT = 0.00123145
Time = 0.683516

PIMPLE: Iteration 1
MULES: Solving for alpha.particles
DICPBiCGStab:  Solving for alpha.particles, Initial residual = 0.0333739, Final residual = 8.55162e-10, No Iterations 37
particles fraction, min, max = 0.034 -8.59784e-27 0.070004
MULES: Solving for alpha.particles
                                                                                                                                                                                                                      